* C:\Users\Jonas\Documents\psipce\microship 2\boost_converter_ess.wxsch
.print  ALL
.options PSP_NPT=10001 POP_ITRMAX=20 POP_OUTPUT_CYCLES=5 SNAPSHOT_INTVL=0 SNAPSHOT_NPT=11
+ NEW_ANALYSIS MIN_AVG_TOPOLOGY_DUR=1a AVG_TOPOLOGY_DUR_MEASUREMENT_WINDOW=128
.tran 5m 0
X$C1 10 0 WEBSIM_ECAP1$1
X$C2 16 0 WEBSIM_CAP$2
X$C3 12 0 WEBSIM_ECAP1$3
X$C4 6 13 WEBSIM_CAP$4
X$C6 14 0 WEBSIM_CAP$5
X$D1 4 5 SCHOTTKY_DIODE_SPICE_V3$6
V$IPROBE1 4 9 0.0
.PRINT I(V$IPROBE1)
.GRAPH IPROBE1#P axisType="grid" axisName="3" persistence=-1 graphName="Switching"
+ curveLabel="ISW" analysis="tran|pop" order="3" xLog="auto" yLog="lin"  nowarn=true
+ disabled=false 
V$IPROBE2 2 8 0.0
.PRINT I(V$IPROBE2)
.GRAPH IPROBE2#P axisType="auto" persistence=-1 graphName="INPUT" curveLabel="IVIN"
+ analysis="tran|pop" xLog="auto" yLog="lin"  nowarn=true disabled=false 
V$IPROBE3 5 6 0.0
.PRINT I(V$IPROBE3)
.GRAPH IPROBE3#P axisType="grid" axisName="2" persistence=-1 graphName="Switching"
+ curveLabel="ID" analysis="tran|pop" order="2" xLog="auto" yLog="lin"  nowarn=true
+ disabled=false 
V$IPROBE4 6 10 0.0
.PRINT I(V$IPROBE4)
.GRAPH IPROBE4#P axisType="grid" axisName="5" persistence=-1 graphName="Switching"
+ curveLabel="ICOUT" analysis="tran|pop" order="5" xLog="auto" yLog="lin"  nowarn=true
+ disabled=false 
V$IPROBE5 6 7 0.0
.PRINT I(V$IPROBE5)
.GRAPH IPROBE5#P axisType="auto" persistence=-1 graphName="Output" curveLabel="ILOAD"
+ analysis="tran|pop" xLog="auto" yLog="lin"  nowarn=true disabled=false 
V$IPROBE6 2 12 0.0
.PRINT I(V$IPROBE6)
.GRAPH IPROBE6#P axisType="auto" persistence=-1 graphName="Switching" curveLabel="ICIN"
+ analysis="tran|pop" xLog="auto" yLog="lin"  nowarn=true disabled=false 
V$IPROBE7 2 3 0.0
.PRINT I(V$IPROBE7)
.GRAPH IPROBE7#P axisType="grid" axisName="1" persistence=-1 graphName="Switching"
+ curveLabel="IL" analysis="tran|pop" order="1" xLog="auto" yLog="lin"  nowarn=true
+ disabled=false 
X$L1 3 4 WEBSIM_IND1$7
.PRINT V(15)
.GRAPH :15 axisType="grid" axisName="4" persistence=-1 graphName="Input" curveLabel="COMP"
+ analysis="tran|pop" order="4" xLog="auto" yLog="auto"  nowarn=true disabled=false
+ PROBEREF=Probe1  
.PRINT V(13)
.GRAPH :13 axisType="grid" axisName="3" persistence=-1 graphName="Input" curveLabel="FB"
+ analysis="tran|pop" order="3" xLog="auto" yLog="auto"  nowarn=true disabled=false
+ PROBEREF=Probe2  
.PRINT V(11)
.GRAPH :11 axisType="grid" axisName="6" persistence=-1 graphName="Input" curveLabel="OVP"
+ analysis="tran|pop" order="6" xLog="auto" yLog="auto"  nowarn=true disabled=false
+ PROBEREF=Probe3  
.PRINT V(9)
.GRAPH :9 axisType="grid" axisName="4" persistence=-1 graphName="Switching" curveLabel="SW"
+ analysis="tran|pop" order="4" xLog="auto" yLog="auto"  nowarn=true disabled=false
+ PROBEREF=Probe4  
.PRINT V(2)
.GRAPH :2 axisType="grid" axisName="2" persistence=-1 graphName="Input" curveLabel="EN"
+ analysis="tran|pop" order="2" xLog="auto" yLog="auto"  nowarn=true disabled=false
+ PROBEREF=Probe6  
.PRINT V(14)
.GRAPH :14 axisType="grid" axisName="5" persistence=-1 graphName="Input" curveLabel="SS"
+ analysis="tran|pop" order="5" xLog="auto" yLog="auto"  nowarn=true disabled=false
+ PROBEREF=Probe7  
.PRINT V(7)
.GRAPH :7 axisType="grid" axisName="1" persistence=-1 graphName="Output" curveLabel="VOUT"
+ analysis="tran|pop" order="1" xLog="auto" yLog="auto"  nowarn=true disabled=false
+ PROBEREF=Probe8  
.PRINT V(2)
.GRAPH :2 axisType="grid" axisName="1" persistence=-1 graphName="Input" curveLabel="VIN"
+ analysis="tran|pop" order="1" xLog="auto" yLog="auto"  nowarn=true disabled=false
+ PROBEREF=Probe9  
R1 6 13 62k
R2 13 0 10k
R3 7 0 10
R4 15 16 620
R5 5 11 10k
R6 11 0 10k
X$U1 8 9 11 13 15 0 0 14 2 MIC2253
V1 2 0 5
?@@--START ENCRYPTION: "MIC2253"
?@@XVaPNIPeykK1JWwrR74Li889BOdCBw9z25sAQNfSCW1lGtZRDqkxfoGfA/cyOKSHtSM1?##
?@@Ilsp1Z/B7iuV0Ibs9KWjZhgIdta60/8PTqw6WyrtYAJyvr1iEPRW70Ho9T2yu4FO2qhU?##
?@@g51fU9pdGaZyBOvOkhGDg9GNTKbhKJarBbSMgfgcNPz0uVuvqa3mnYwyL5Eu+VdzlXea?##
?@@tEIlPxuqo1EVQqnrB9NtIMk5hXyrQV2LUAlA2ypAu0shjueo7BYDCZRxfZHgbmFIFtsZ?##
?@@BWIY1tdwt7pw0KYiNt0AJPx0z70aCxXnBeV4jUSEK3fWl3ADn/4qEPJQMq5uuLyGrcf3?##
?@@hre3XoZJD6jFb5RwizbQOy1RD4p3l8d4MXGVNiYdswj3j9eyhcBHJFLf9bDtnPoXtO/h?##
?@@A1DyJpfCuN5INN938e/FXSAJYmdNDmysP4LpkG+rEDmZxzS104xNBznIMjAQy6nYggnd?##
?@@ZJIuog0L5zG9GCDzFUZf9pGfPdXEJAr3TORalmNYrh6kLqBe+a2jF4hv0NPQKTrYvLrJ?##
?@@idHwZ8gb2HZHbbpNFVmhXo4qgGSAd1jjO0EEFU4efQWKu6Es6Lv1zRhm/7ZeY7zR+fd+?##
?@@OikMIigxJ6JNhOBRQ/CCm5ylRNHraAbSnxU1Ilw3Ke7KK9I063Kgt/+mWq79zakcqZNr?##
?@@ywjcMKlPJiyshw2TIYH3gP3o/tQleR/4jlmABL/hlDikiIoistYk+ItR2BCFNAo70Fln?##
?@@tEIlPwHcuEl8VicUldyepfPUi6jYm1TiH2vKj1XjKggQ3QStkrgrmdzZ2BwbuR1w9puU?##
?@@uW2F+f127Le5RQVRBJ6242cTJie/shrPfl26IDnUe4CLZ+TY2ai2a8uKiuvVKJLs/ojO?##
?@@mmM1RdjjjNgC5Jtgr7ybLMjuUF9FS2OXGiMaJHWA2eRamPmKGcKhBjGeO0qbY2jOcHzZ?##
?@@L8s6VtOirGAlRMqh+McfasxAO9V/iK/8Z+eHye/WfGMx3AkUeVhzUh+6GDkCoE3Mmrhw?##
?@@qNtAGwGrwGfJ8wSspvdGKOhwpJyZkDvfSiimMOGp7WVpon3RUtbxDfcaPTGu1CbGVjX/?##
?@@XVaoN8eBJrLn39/7mvNXYMQ15sJ47yAMqQ4r5I3jWunD4a0QsqRXmCkpIUGoC7zzNwE3?##
?@@vpjks61+/wH2qleeAAq8MHXmyItMHFmWjqnGairepg3eXo2ZvNcZjsBRBV91OVEl6aKs?##
?@@ywjcMKlwtjwyo3GbCWMaBkufOT/VFXDvGzBY4Bv0pkw82Yl3XAoc4RvRR8FWreE2nozs?##
?@@PDsy0xHEQrNfXcJQj0xPMaxZSQqTuwrBPidXHCmNS4z/docVS66qu+qJ+TVOFjq5IXwK?##
?@@idHwZ+cd0gcJeclbVoR5VQWDZ0A7CZPKO5EOMXb6gxZF1h4b6aABq8JCWFQsyxXAgqTl?##
?@@rg+zLb5w9K4PJdJe3UYwEhUW6k3s5E2t9RIEhSataz+G80yLwfsm2xaXgzANas4+vqFS?##
?@@l0n8POLZD5yAznnAApk2+WMokwjheaFyFmmEh/BPN0SLcz2X3BG/UO2KnJLMLrYVYop8?##
?@@VAn8HK1WpPA2P4VAE2TMOqTv7qNr9bX/tiBWYS3x2Kq+mTecF9ClL6vdorVNlk559Ma4?##
?@@sSnsNlirO0zXvBAJhhyQUN1n2qRzFPiEM+JVZ6NiBCJI0b7cY8VmlzljLntR9i2Ycs23?##
?@@lkDo5FHv/B7wz+CqZ36Qr4clksWAPR+ASUAveNEMU0dYLSRfT5ejPaNKVzZ3bpEN9/Ws?##
?@@49aneESJEvhJGeTZjXPGRuUoeabPnRMKo7KUKCzhVDgfmyWSaaFXbg6kMrfXo8aaVdew?##
?@@YHDiQBptBZoZdSEekhLefv9RT9s9IA810+XBnk1CYU2dmfGgvn9dtARZdAq0dadL79HI?##
?@@YXn1mMdmL2/sPBY9rsF6xOyA/bB5t92UMEBSY0Q34Qbw91ir70r5VBfxiFfquohZFOIn?##
?@@wrswFEpV5llgcC2nE7+IscqDouboAAV3vIAS7JDuYCHzDTS3d1mxvBZF6Gj7HAxJNK/v?##
?@@f3sx87tWtCZyHgXpEtmH0oLkydYoSRERpKO7iIbdZMtr8SXuuUUKcR8uscXckepF6KAM?##
?@@IEocKHS9mPnmHE0EK3FU0CgigECyiz/+MocROGEXfa8Ex7ZBnwYe0NvZ2QfArHkPMyp7?##
?@@GQ6WvpR67zZQlLabGGGRIy977KiIDwLDLZ33hulybV4bsFZqG3y7p13IXuIZrCCZIeZD?##
?@@NgfAweKDElDc3cnMfZ08JCKe2pb3+RMCB4i63eP9iSkBMr1VvnynGX/HfCaZz7z2nwq4?##
?@@l0n8PN3l2XwxjpLJVx5Pi1oo+GxQbrGOno6YYS7v2ylhE/uUDmSKzB6No8SNbM1bs33g?##
?@@SKIX93YlmxTSAaYJVtOx4HqbbA1JtGA3QAgfc+mMztcOvKaPc2TYl1pVCvQ6zSNrU0em?##
?@@SaoqUN1zwI/jRWeJmjNxz8XU/kZF8kQXMIoSxg4FDTLMm/kdQFKf8jPa5YWYdKR4q5gZ?##
?@@7jV5RJfzvNYCv1ZZ/D5J0fc72GkABoUwZtADRCEO1lWdf8kLj7nINVbXHOs2A8H2U9vj?##
?@@dzaZMXpkzKRNsNvHaIb8NNMRhj9C2ytN1XjPHLpuzHE8I1oPJvs18Mj8qv7D4dysWD8A?##
?@@fGH46oUyE0EdIkSFpaWkAw2W5pItxQAzaH0/RiFI8i5bgcbtrgKAerboDuYMOl/6gtDv?##
?@@6QoZi7lMk0tKFkx8+KhCp8yywcqgor2pkx1Thm9AX7lCCPr9tCfnlGVTrCD/86WmmjcK?##
?@@ziIWOUQhUwSgbygy+un6RryVk0433IG0oyEHI5XrDxNSHcbeIngW+/s6MLpFsNJ5yAVm?##
?@@W0WChj/4nWXDUq+aGFp/Dzyy83mNaXhYYs1ni0aKtmfp6CrCyGZG8vKxoWB3/vBm/Mk0?##
?@@sCDZ3rWu47hdDSd3GP8qCIcCx5a/6mkbmZpwPhcsmnxFg+Kz7z/UtpsBkqvKQhg4oDKV?##
?@@dSVygKdT233SA7FgY8JMvgc7YpZA2gePzjijDjI4pmn4F4kdNq4CG2uAaepqz7wL+2U9?##
?@@quxmyzKi6ZrBWrm4JOBW2DmNh3VFHvcHjIV4OGyk6rrdy3sBeu8kfTTMG2Spwxz2azd4?##
?@@a8+0DHgXEG/8sFXmkuWl2qw4MOLwNLNbfWb+bgHRb0+Hb28sHH2E6uWhNsbZfuzU6KoS?##
?@@MNNNrpWJ7kcOliId+TV5P+RlHO7GbiSxOHmMZzfZ02dSanLpkukBi3p7l8RGLnvvpk81?##
?@@kRWJKoPqodq5Jc3LAoQYnmLwS4hEAD87qH+hVOglLiNHIzlK4mzEj6Y1tRbN6C/siM3c?##
?@@3qtHv+Jz5zNOc7yPapY0gu3IpzpcUF4lOrZGaO2XfoNQGfZL5Y7vzwe8Xg3RldEQaotZ?##
?@@w8NEbUE3SrwR0urfhUDBlMY/fCKsEzWFl9sZ6bk4eEsGqzH2Dg4zoV3pho8KkClen5AB?##
?@@1FaIS48fRguxwtw95qpr11AeYIsfb9ykjKM+9fR8m10f0PbeArt1rKzHabs7nreWnteW?##
?@@zRkC4DXXAp4ZpYZfYYsQZTHgWM3GAhD1/RejbNQ85bJwCDEjnTQr6YGA1fiSqEdH5AmM?##
?@@unaYUV49oBUn39xKgi8icWlvBHRUB8kz9D2ATgiFdw7ud/3T693k2awCYSf0qtzTsNyx?##
?@@NxDTGRCmaVzNrnQO6hAW6z0n6rlNc2SOZOFoH2/kWVrcFsTeWiS6yzeshsMOgOMzImvR?##
?@@xMxXxT0rk0rNOLT3QkznY0zOTTCSkvjfQaJBU20dfROLA4K48Pl3wEgZAq6RNIFZLOWc?##
?@@dSVygI9JETwRmgJB2sGDivaSRfsI7kMIdJgfkqjWjDH3CfEH+UfuXwwtAVk3QwKmEZ9G?##
?@@quxmy9kp2Ou1CKMqqTEixL/k4jMojf6/fFFCbPZqWEqbL7oTLz0y2n/bcQeImb9T1Ig6?##
?@@h7/Ktm0u9ZCp7o5P6zBeZoQ1+VgEiCfz6BHORNvmG7xycz5PnopZKGJR1x2gI38UMIRf?##
?@@gINETHTKE5XAt+BoF/cx3CdHv5+pmUoFBAPHRnfwzkmkEOXeIP6SwtTr0a+neXde9kNU?##
?@@KZfHROG03jxhjyKKvam+zNGiezojOwQ2iSBM8u5aZfxNPZjD6EDD6L9+BmtL6wSuSrgI?##
?@@2on7XXVdvYjchVaawL2cOAlApsuoXDfooCXta9w+t2BcpFs+Hotu94rjSbcZfySjIxbl?##
?@@n46U/9vAZZl9Usse9E1jLDKIcZLnoWXz5lzEoqtLKAh3lcvO3Z97wBSd3HSRvluYF6l1?##
?@@3JohDta9yGo1ZcU33JlJHTCHq5hkB6NCoStm0ZJXZ/DSgtMMO/x0M8xaljAzSLBj5WrP?##
?@@SaoqUF7LmpzUOfsn//pU5lQT9h5uFlXsPUjtzKeLXIWeItg1EDjZtAWhaUkmZtJldtJZ?##
?@@+pxeabs2rQmDLwrwbLHyNyv2zGSFjzJQ5VGTrSQZGR+kj1UYFh9WQlVyLytvahsgMGZX?##
?@@T96dYjMIc/6CC0AoVmAOx86QIaXCgyGwt1eTWGYDqwegdqokvWiJVYvJ4tiQL1BgSUzu?##
?@@NPaZEJyjyU5aqMEeDWxlKM1Hm4W1CTPavCDX3RbyoqP4M2jm5FZDjmZSRH3itV8T020/?##
?@@VREQdEdtzWQBkfxLWDczIkVMNKgkhN0RAjeDFTJQk46LK2gDsSllZurEaQkwGwgu7vZx?##
?@@RpDxRnJwQ5FXSMaYXF/3wRDS5hQFRtynhWaXNkAcB22VwyZVgqma7OV1dQygXpUs3vq4?##
?@@J4ahk8aLv7qPsPwdJwJy+ei5anM34k6U9R/5G4AHOJ66uhLTF6OFzf2C4GGdrumpqltc?##
?@@2HjVrMtF4Z7GGxolZ+tGp1ccSjGWVbQlDucb2/vDYiuSy1HiMLT0DK2gKauAbTmGLDlH?##
?@@ha6kBuivjagW5O3xJh0dktccZAaVAAEjLnS28qqfg86C6NtyITB3pvouMbZzga3oP36G?##
?@@gpRr/WnsQ8ydlJ5d3geGdH00nYBzL+moM/ANXfTDLUyO7hICIaPWI9lDT8H7vzhNZJUl?##
?@@q/V5JNd/bqonFsX4HJc2Ti6nWfpOvoILRHjsnuiHffHNoufpydUxC1KXjMb3uElxfCDu?##
?@@mFIPldhMja8FLhdlbCt6xxdCvlqO3RB4sOptBVqJEMMMC6fZLQ3ydyTAn+cVRTpoGlDn?##
?@@0TxPQrmD10fIPa+z2e1KqH8XTS96GWzTixTUyzHTm6k9O8H3tnf2KER8GGlJE8Y0tYKM?##
?@@LsIn/pWOLXNe6xa0t4Jgj9W9K1SAxeFmpkY61bAg7X9HjM/mdfBkOhZht9KdpvddMYSw?##
?@@e1jlkv1HkbX2YvRGxH6S4qwbl5kmkwAAEzRpAKUteGrRXhExrG5JR2KgSdEg4Raly7NN?##
?@@PDsy03AQrZq/GJrUchIvodgF28pZHVvMbKCgHdOyYw28yiCVjzFxN7XRQaD4WNza7oNY?##
?@@Ue/DEhIIuT0rknzLSOTVu+N9Cy5FoFqrLQOy19RTyWdvAiVRY+FvDEbAc7/65w0ebo1U?##
?@@gpRr/ZyQTE37DB70dEcr6ljqox/4u6ipR2Xi5tS7JjipagxU6Jd8bN2Dj//z5w0LMTJz?##
?@@I2RVMYpKSJNW6QUzhHUmZ9PlLiPPgSfzTFt6PLSGb3NAeuiocurJ14RyxjVEKf/l5DA2?##
?@@EMDqoo4cHS4vAX4YfkVEM6+wTnYoV16PqUBn6Ew5zyscLx5jGXpJ0waaDf5jERwmo5RP?##
?@@RYje7kYEgF8hCHFzeuf/2Oizlv3ZzslvAPGY/SOO5G9H/tJfKxOeiZ3B2aebvcMzQyrJ?##
?@@rg+zLUjYlSER2LjJAV/FcSPLPomXV987fWwWglZD1jfb41QfbA0VkjcOo4sqImhLXUVf?##
?@@W0WChgjQ851qgr77nnJyeE509tEMi8OJ1DREbDrBe86ShQh/PmKleQU0sOB86pCa9629?##
?@@GAWDZdNzmQPDqKO895pRPBmPR6S6h9K4ujDRw1ynxa+TF9Vg5UTRKexTj6RppvZClwqM?##
?@@BWIY1uho/27DirwpaykeVI8gtGMmfg4JdoVX3V6xxrMGTUdNt57LpkANlUs3jjqzLQlI?##
?@@kh6cg0hMPgPPolSN4QJhdBYD964zil7zsxQIPhg9Pxj8yLle6Il7v+n92uwaGM00+GMi?##
?@@94IkYG325dMhOuhilMc+mj38G8PsOsr6waqQMsbS4tUVOL7afFfwqmCRa+GFi7P4wNQQ?##
?@@UOawuoFjRspKZuak/YAh3HWQno0rUxf/Ri5nlAeY3cPo3QrVX2nzTNG8JaadqPwWlP4S?##
?@@eUe/4ezfdgKu/iNUraHP0Mx/v8EwZUctLu1gnPQrzIXXeoJY1SoE1pW5UBN5qYUMs0Wd?##
?@@bujtFadtPIS6k+pqc5voAGu9waTMYisajwOGkBBwqJaA3KXJbF/7mHfKL9+011U8n6PK?##
?@@UwDpw+NRWmYwTlbz0/sKLLXbi806t7WXdN4QBFhgFA4TBfaiMM6TMQlx7U/GFYw8HQ/O?##
?@@ADe5HXY3ohqeticZiDcCiIChblBBgrDr1+OQTORtNArPz8aQPt+hpSY151hPgfxVkYfq?##
?@@QWaSjcDVhS1wYOWkgrDQGQtxipvn0NkUsIqWyxdxNLc0G2ugLQD1RX6FarPv/Qi7xzcs?##
?@@NgfAwXJy6VC3id1sK0X0bVt6VhuyPSpvYpmALs7aHlwjtBfsS7hV6QFc4lR5cBNvuFUC?##
?@@h7/KtqHeVDHb9y2yaMy7pNIP2JC8DUUfrJK3xO4xkNHG5EyfOMu8fS5jHg+VLAlOGXE3?##
?@@mFIPlVOfXKq6m5gVcarCmjQ/dsC/j6N0ZHaf0G13vIpg9x6D2g/53lwkKAOJkIxAOqU8?##
?@@vZDRWirhDBmLLofwcxlowbTo86wecaaJImMQh2wUOD5hoI3hiiuNu9lL+uK3NOdBE50s?##
?@@NgfAwZM5MyQJSqT6zj/3FtmRy7PKPsCAPw1y18eUAP+PD0G5/8Mosrb2xUx4XOOUwgBu?##
?@@NxDTGYH/XWvO65bdWnhFQ3J7RD0NCIvDcesjZRd7YgLOsqGiB9dDilv6zp6V9TUUxzUD?##
?@@EMDqorohKabQhXiyGZsbXN2ewUOUmqgrtqdnmkBm0V8/V8vxqEYFOR7dKk2+D9a/L0Bo?##
?@@0TxPQoiapAzj31nHFhn9mmeOc33uGWNt3FrgkJMGTXDgRqTONU29nH8BTIhkIErKHapX?##
?@@quxmy3TdX2K5fK/OXMa42b3fk/idJZAsXEvRqP9WrY5VGjL1AIryOh4K/rfwdCTYI1EA?##
?@@VyM2JeYtkZveuIucUl46RXxM1bCvQ03guLaAHI148GCG/9CbtkD16cMad3ZhrP7h9sJ4?##
?@@5N+60QleCyIiSJq2nXZS3/xvj1E3K8sgHAiOWBtXfI6lvRaC5d5nGal8wsOTmX5mKctT?##
?@@Ue/DEolDWNMefzkFaSqsbcvw/K+ffHXzWCsxEP0IXx26A50BKqXVQDtSspXtpfCsDKmn?##
?@@VhojzBNaWdmyXBLvnJrjSdbbvq6rVonYSV/RVOWDtIEXdTbEyjh+W7Ih7/RosUY1mzVS?##
?@@zyspkWwt+bNihCgfJ4fxPAQW8aiYvIsDbyG0vd0yXuLkmpnFlkDpojmCuhllRzx3XGrU?##
?@@VAn8HNG5VMfb0M5tVxoHybATZ3JbyHrMGrv8wEsDhhmKHmK2VJomPQK7bCSbA/E53kMQ?##
?@@0TxPQu8Og0pk6zh9uvPsbS+NTF9K723AKB/kw+99RKm0oxlxc2sNbEr41V/gD3heA2LK?##
?@@unaYUeYDeX/mGS3Av5oP/hUFKPpG7kkTNUVT5B5YccwRjYJoPHSkL0f2uMIOdDwgZS7M?##
?@@25IOtYvUPaT9/2LZ0YHOXa14c44gmDZvDtkuDXXgf4s6sif7L/X5IM9x3+NQENSNF3Lr?##
?@@VAn8HKvgSVZtRkEc7scwnJ/CvD5FGlBJ2VYmz7R1nBAjr14HEGCaGgDsA+GnKhlanoeO?##
?@@zRkC4EOpwxZeOp/6IYIT+IsoGJD9fDeeQaVA1BXOm6IOo2h8XOCvaE5Y+fOBkdJKtflL?##
?@@Dq/E8rvIjIRRvIye1ZOyw/IyD4E9Rohd58xSfh22zdB6bvuBLjtAVBcw7KgvaBbd9sMP?##
?@@o7DhYS0JuvZc8fnsEJ6LihUn0t3Z1xEDWmQoNZoM+JuWxMek+h2jL1mVi3tpNs1H883l?##
?@@MNNNrns4+dPw7G77yOn1csYdkoC5gLYf7NGQqJRuvoD52B4Qs1C0zBHdWA456fKrCmt5?##
?@@Tc13sSGW2wtndWxS0DuUEcbd2HJAmBX7xlgAC/GIcj8fUbIGm2xSnuwfs924U4MZYjNd?##
?@@5vDggn4rD1offfmj4vgsZob5xglJAUQVbKWcOFF40i4Jku2A8oGv2mfVJZuGj/QPm+BN?##
?@@p9Mtwl/Yo4ZbC4r2hamS87kwEl2PWBbVqPG0vV6B3NJxXbFO9B5x3VeI+NXFV15zQzq4?##
?@@JGxoimpxqtDtDcaPhVaPe1MApnsAcbR5f+mkONyu/y+mmRwcCA+H4xFZS0hxKdXNpkWy?##
?@@fWkLQybyT/Rxe2WWcPLmWEBV68FBmbd1bylvAeA1gLdjzxuGDyCjKNp6cywuehCEIL/U?##
?@@WjxvLv8su04GwHr+STftqYaocioTMlSHTyi3H+1X/a5EWSuYIhpq2a/NyTpUqdY/5uwm?##
?@@u3+rqprYLLQQ3tssV7bJoCws2lNyQEi4k4XcishyhLOjY+hG6WxRUHa2NklDwj2folRK?##
?@@9GnrV3ZV/TzlkoRuu2wJg2skIkM7+HCNcYtMiCbYIRZvAy1fQDKnbmHQwmjftjuhstiF?##
?@@qeRTc8tdQyS4P5ZptiyKp36SpULOw58AmAsT69RZvZKDpxMOQx/f5kDjBqdQ6Rji0H3J?##
?@@cgs5dw2OrCT7tnHHkKnt9uhDZsRyGLtOrsPm+HDNQJ+QSVQ664CTs6Z00RzuFUO/A5Bv?##
?@@cxNMz/n94oWhf7yu87PCXjtSbNpQnrlnDcnYhEYA8frLXEeIoj7bTHjFWZBG6TlYDq5f?##
?@@hKaRradmfKR5qWJ7f/OoyarrsxQE45SBgJ4cG2CdvmUFf5rB+kdKBTDyZ/0II+nwcY2O?##
?@@cQImHrniJ0rLMJoWAQqhNfdB9eFFXZIFZwYpgB+JZkBoNtR2W7m2qX8L054sl8LRazus?##
?@@vpjks0Z5AoRKWucwUJI6i7iGrjekoTk16fuMnWjkiuQAEaVOskNV7aG56bkwFqYo4tex?##
?@@S7tRAICwJluQ/riEc73y1UL0vbuqIfz7G46wHawm6bDkdmNG0KWCey4VmN7snkoc6Bd7?##
?@@RH/LloIZSQTCZv2Q6gCwfAdLnKV+GeZw5/3rqWStXZD8rSC6pjVjWQ9ra3Uwes4MyeP4?##
?@@mVoi7dqpMCnG1ClNvnwRo4NpHghKMxqydinQ+IkwgoX3Qy0nwq9Yj7BUu4MowvpWqf8U?##
?@@Jn2OO41oFhOIY0fRxm6WdsDPSJ3WQb2A7vqdEUpvy8g8i29pU0Zscn5nCJIT7GgbSKoH?##
?@@S7tRAL2RJP8UMwxZ1Hwj3jmy/YCaJocLMvd/hCYqBjDm12/n05EyNAs9fzq/loeJDZOc?##
?@@LLEBTUoZ2RZaMBYY/MJHN59jvUlnpo+zF8bBnKYDMA4anYT5nZKjADr/RQUtPCiYVkPt?##
?@@PUNFK1uabpg1VhNY8/sgXehsFajGgx5Y9t+FqZqjQV1LIifR6i6k1MJ623qC0PS4CYKW?##
?@@rg+zLfiAnNqiK3K86myoFmUziqTgekKexa2dysfAD65UpIJ7YP38fA2rWSGE7N6FZ/tW?##
?@@n46U/xELtkAaaeZuE3I1FneR2hCgu9UFlEd9hh3O/+hQLIZXppMCuqH+6pg/TjA5cK6f?##
?@@uGVyoVB0JFbhsudf7w1LKYD3v8pYvU6XBHXWfu9gVatwlkBVFyzs794r4Nsu2mKahQWx?##
?@@+ZRLEV7xcnu1LgXVTULz8FqMEwTk2cfQWgtpCu7BgIJ3MEYVvJSXvMe1sVEfgRt48zi7?##
?@@GhapFpvTaVZyOf/ySPOKHunT9T/xqPhYHgRqqXbZuI+rbBWPQJCtoJ9O+cjS1v56or1h?##
?@@94IkYCvbLep/rukIeOsBwsDJAyTm+B3dCS0Pvoe5izIlX3JlbH87XzKKjVbKUki6bJdQ?##
?@@KI+066KeypZOVxSwtb0laXlHHxXq489EHlItpSoAy6vgng3s4N418aLVZdaWeY2qYhXv?##
?@@/baXcrtuou9wfUMn73dUussnarF8I+MVXqBM147h4ebiqeq9pfnIya4UyCvZtjM8+OVD?##
?@@IltC2bTFc+lulSv/REKeAKHCa1MQlRiCSlcCwItPJTkFMQ8K3xMXtpAxwqa5hhHzGZg4?##
?@@K6ju9PwYa0kI+HFENQqM39wjHYpaM8s1ozUzheyW89CmPcnbpJHpBZsSjE2k1hPvf3Mu?##
?@@1FaIS5PcRGQep1v64qdEl1rDBYd92aS/XZRgnvoUsTWute2jQDFvhN6Iwq8Fvxv9zku1?##
?@@xdVqHb3j2/qNga+ruz50dMpjPgTqtvgeZ1meC3e0lMwuAyMJjJDFi1nxCiYpDtstvrEP?##
?@@YoEI8T8A6bxHfUPlNJJ1QwddIKNdhiaL9dN7h/bdoMGvswAFAwePCiBtbscailbUTogf?##
?@@Y4obSedCrYh5fTuhJ4gYpnJ2DIAKw8bfv13clBl8j4XFmk9RxBWC1HgUHfzBZysvee7y?##
?@@QF1/NB4K5N19D6zkP/MldEO3CO5wxLBUtApRQ1KvhBKIJqHEp3eDstt2BN94f1KC4qIR?##
?@@WTRc1ag72mFy86rvaF4bo2/94BR1y0qusxOLYnOKUs2o61MQllsvqTebW466GEFBiVcv?##
?@@0kRimp0GtkVT+kYzLy5BJaIXCk0dloZqRi0Z97tDFfnmvTiRDrrbBmiX9Q3c4sYfzbh1?##
?@@H0EJ0EcseiHqgbvknOJ5JORFP1k4AU18nWuS2m6fCM7/IKuEqTLuMaxkHUTnIAnIzGHW?##
?@@cPoTxgYOFqolrfbcSbAYqI34ubGjmFs2bCrotswYe7VuRbSObvLaORx2rNdNvLcw9tRX?##
?@@5ejNKVWHg8sQwuWyL+tDvYIobPgFaMrAo7q34RHLd7ppASpez8seINLgfqFOb7LiBjCM?##
?@@Jn2OOw3aMAB7HshNfuoc/bDKQ3kiBvFTUPxXvOYaxu8bM8xholTuJe9p7w/ng0EfwKwi?##
?@@M+2Gt+/CQRRWH9s8SmOfvVXTpO1ff8BLAUrv+QjejZKqnlzf2evj2+OnHZCwXirX1Ap5?##
?@@xMxXxSskWEuEayCn10oHWeQ/NVDre2Vrgbhm0cPoF2fUDqDVcvcWT/E4oIx8gXPrU3b3?##
?@@GQ6Wvl949RqyRYU7sWPtE26IKDFs1M/R54Hi2+aaDD6DWfvJdBJYJwOCuYaocOFQej7I?##
?@@ZqRUUt/ZE+F9mbDyCQPD1Xld8PfFZNUt066x9g3c7c8V1BXxa5wHcy5FZmHK1HHLCIXu?##
?@@l0n8PEgmceYgFhoCIt28QKgirpmLRQImuvP4Jp25twSchwCOKsnHKVbspjNvcOa2zTMs?##
?@@IEocKE4d5wGa75Y4PJ8t3DJCdMGywyseu5zulT4Z45HxmQHnUDN72ku1Et1Ikcf8xYWn?##
?@@zRkC4KLnAgiYT0Su3YxTxneZHYhqFAuKbaloP+1Ep/5PqCLdmwzKPirP9NBTWMyr0xy7?##
?@@IltC2XaIpeqy2XKEtiOM1Om4NnddRVRIBZaONBeQ9vU3NwUCbb/jPqD/O598pdB1ynIv?##
?@@/8e9I72A7iHxDHjimfiOgf951ULj1fkqlOysSW6wNeN5w6puGa9XUY7CVCWeWk1/8xuO?##
?@@kA120n8Sva/hlu5MNj+Zb+qp1HBfBiw2V5RVzqjIsphzLkuVXiwYSeA/fTXRNSqJ96Uo?##
?@@KZfHRIHm3YzlQpkncNSD45hN4b0w7eONgIATLnGc1r1FdvQckpsbKUIMxUWgW+3PB8HA?##
?@@Qm6l5a8Nsgcpi6+cCcNCI5D+t9RjM+izGo9Cqtl4RVY6ioi8MjXTEqsKU9WPb/2aN8S5?##
?@@OzIfepiCvifFRoXi7TXwXuIr1VamySBRQpPRw1aMTR4oEcjjDgG/JS6LfvXtuJvSd3oG?##
?@@OBjmcakgheEjg9QEgefT7up1sR2EpB1WO248/HdrRa9AiuW+Zfg9PiSkPBx9Mk1lqs9T?##
?@@rQag1AAJN8Xht5/ChAfI3J2gZ4qzv9ULiVMjyfjXRK55gNhBk0fWhtFSgqSkA3W7FG7n?##
?@@LsIn/paeJTQ6eyZRsOHXx/dukDsIkzAwiCGdpFgWBdWcVX+oyEsR4ZhZcI8wzGmm80/6?##
?@@E9ojrFXzrn0fVkPskOSqAR+gYUpiGGNZ6V893ZyviFt/gXDKjd0vTqlzWObnQjOz25at?##
?@@aLV6A9/XkTnhVF/HBHzlUKuM9fIgyURH507dsOrciIsa6MDFY+W2boDllRe2F9hOBGDP?##
?@@kRWJKgQdzAR2vsTy3LqErkbgVXbWL8yzWsSBB1LhWotO8LUeeXYTDhPGx5HkJ/11fQT+?##
?@@fnIem7jHrTjxxtLZ7uxrx7GmCKGk7F7lielVGqIsq+z8vUOPFuiuiSFm9yyyRie1Wx4X?##
?@@001186yPw29MsZxuaBIFZr42tdRrXZIk+jy0DiPuQqgJbP/HedFfI0+3goskGkKpqdeH?##
?@@KI+060yEEN6X2fKkIVPPDFJ9D6QjKq1WI/Xnf8NRkGHjGwE5jB4q6VKXLMGvMUnH0X23?##
?@@BWIY1oYeFArjIpvA1bdhtBTiKqIwGJtV/qqVAX43EDzMBFuurhDcx4bKAb668gO6tqf2?##
?@@3qtHv0lDBB5XRuIBBk7LU5C4xZmKtjtBx87nt79McyJiIxLk7+nwyVZguDQ1zBb3z5/j?##
?@@f3sx821YkGmLmbKX+/vSFGzkXZdwOsUXnHv08jWtlnomnwtDq5eD4RjJA43xYbkcb5RK?##
?@@CHtR4IQ6A4vZRvmRmEUhzLo+nURmO5/e3fHQnL069YaKkJE5bp/awvBMlRdgwlPirHME?##
?@@ha6kBmSgkJkkYNUg7bDY7Xa7HG/5SseUPEXkrInjFDT9pARl2VudBPdERmiQiamf/I9V?##
?@@9noRBwMjMpPg1J8+qHiMsQlkNAVKKEbg26u2dKdWJmJdF6fmqsZVi0stMfSmHM6lPGnn?##
?@@E9ojrBaLhXHlav66XsyCij1aaLz97vwC/WaOycdD6RhPZCT9FzAYqJV4bQr8XFq0GNWs?##
?@@VAn8HGU/2BCZTSkmN33VaHLZF/r0wxtpri6UbjnH2uACdg9vqv8aUUg2ebIsy2RV9GTD?##
?@@GQ6WvhZFQHadktUXWeJvzilzAQ1767FaGHgUH8VqwkDOWDr9gcVC5Pa8luqaHV+9GLDX?##
?@@6hMs46Dst54lkb2leU8mtUpDcJ/qEgukyWVvqhA1yKRdNhidAg3RnjXJwRNGFBgnBUPg?##
?@@cxNMzxT2xJNrITIETP6RrZCfdlpc+kSle4DahHomN06o1ItXChTckqNatZhE7ZD60O6M?##
?@@rP6MfGVFiP8OEocc+NabybXHFO1Q3illgwn4TcEvwh6Dcptahe46T/38cU3JUZ7bcNOs?##
?@@Ue/DEndOXL9zqfO0+PRcjAL7mAdr9/k+lyQjFWgaRkn/304f2lqJBk6Gzs9W6Ric1lw7?##
?@@psoaalphGlqqs+ojwx5Sq2uuHpFGzE2GBGkf4vxRhzu662J10N/wNIRSXU5S4PA1o8nl?##
?@@12/BVGUT/1W5YdjvgRAktJscxQf4uwGwRX1WAwZrqbnZtqHTy8Sr1QtnexdEkqtqL4W2?##
?@@cPoTxn8wN/jh28q4xBEdNODFDbMFfRFPfx725PUw38sQvWjQFlD1XslJGN+joYuA5Ib0?##
?@@FetKXMAZ6hmhafihBidtpLKMrDA9M05Oz2wNey8OJLlq/zR6zILo3p3zj8isweHZjQsi?##
?@@+pxeaXTEct7aiVK8HGPHQAVFAR0+TWTOSKA1eqwmDOj30CvCqrnJQvfyPB7Pjop9xppQ?##
?@@b/EAbtWeSWh9FN5yTvKtDvvxOeW8Tas1vWuPMlzNu8YYL48fCnHOLvtRulQff9h9jwnt?##
?@@hKaRrQ0CROrpY/r8swjkpfiU2eaFuuwDcLfxmoTcX/vmykgA7Drw/YmnfBRulMjSD1Fv?##
?@@BWIY1lD0MVx+fEyg9t/JCOUMPXin8JUU+brdLQDfNQHzEroS2eSZnRdH9iQHSQ9Y2JPG?##
?@@di2G2JDY1qTbtEz7PmTyblqbVfOihAhDkuYBFMvMpF+j4t/BTfs1EjjcRXP7OAmpEQ/h?##
?@@Gx+8b2GTkF1bSo/4cXMnfBMc8NmYPiqvLQdOZrHo/NXBE2OhDPy4KXOvs7K4o6oYUWrX?##
?@@WCtJfSfXMzranvnOlLYauEYXV9CgQMLsvBbZn4O8cJ48+wXnmBRgs5g25QumM/Qx6AhG?##
?@@5ejNKXPgCrm+XctzIhqlD7wA66RldbqrbSY5IBs3iyjA//fedJFNn2cIV94D9ddsOFKD?##
?@@noWBpz+o9jhg2okeYEYRz4NfJw5L+AKY1Q4DX4LWDa3wsjxg62L8DauFGWjfvo9HkdBl?##
?@@Gx+8bznpfj8q2JeytDF3PT0meTPduTSeuJftK437BM7mFilJlQ9Bnd0H/+9kmBIcNEsh?##
?@@SKIX92cyp91s5kU6iMyVdt8PWyHKpcHEeAh4QB8NM4eDNPJdxArPSXBDH1hbo6l0FZpX?##
?@@Nf6taJeWWuHKfNayTvDv4+yQzRgKG/zN4uItHRBIZ+hWV+XM+xG7wGl6lgmMHdPKe8Jz?##
?@@di2G2JNmDfZQhK00lUJ6vEMn2wvsdCVv7jWUI2RMSnb5DssWsu/JGTOeHpPRN34d6uVy?##
?@@Y4obSXZ4541ddOWtuDP4SaJNA5HCZ13uIbnYbrrvF0Uw2DeEGjGBGArEdgLa5r96KvGg?##
?@@CHtR4AUdIwVtU8tX09toTge+6MWeJJyAiWTLJEOA4VaG1vKuM1oHV1ET7oNjHc3hOo60?##
?@@yfe2f+G+RZie06UgIZ1U+mW+0xyv5zadWaz5P47Yvf+gMd9E7ZWLhE1dJTteQRYpjBky?##
?@@Xl+7jyFDQvWCxi1LuPdPsKEVaQK0FXGaczsZQsCBfXwbRtuuowbOHVUn3DXxljOPE5JS?##
?@@P1Rs3O2BEgxYnNMcYIdoNNJgCmsdKa2DE5FnS6PvTHYjT//Ubl1Pm94Xa7wgEwMIARcd?##
?@@BFkFfpibGe0W43ZAOMzUDof1yluuaxLLHQYwuAYbyAGiiRq9wDtu2s3PNW2U4qIc9akU?##
?@@/baXcoSMBDHDWxrQpDGhrzsyo5JA9BCyLczphzCwidjFXYLEetcUXxXM2ui03hYhABMJ?##
?@@OikMIsdQ2oH30/ALsvEMOlHwuwmki5obKlIuUSHnHy0ifnh2oEQidXvvrJYFoOi8GMfE?##
?@@h7/KtmOLKXuyLI6dCythOgtIKTBry+gQmBaoA68rvT/XdYknMltmD2ZKEf46oRUXn64X?##
?@@aLV6A5E1YNROKoggzVBvfGPUruzYgBqczKc38ahxwN4MGkwfwqd1754p72+XzrDeuEMx?##
?@@ha6kBjRMuD2+RR1ZsK4NzdQVUnkmeKwcc26FGsIESev5Ida/rakqQlYbsbFTXQZgf6Nb?##
?@@elDSOpvhmK56gvdril8lNlSdJjIVwHESQ/sc0jOOlbX3zzZ+T+lOKbufnOwstyZj42IJ?##
?@@x+aQzrTaqBc5fLo7X+ELxkzCtvpjN+W+RGHYppUkdyYQvvd8guX3DOQChKNfK2lwWcTW?##
?@@gINETN00h2X2hcb2cYJ1OmwN0lKN4tH2svqifApbsKqh4C2p13Hk+9v8sZJJGaJuBRXw?##
?@@BWIY1mXxA/tCeH5liB+XR1kA53Stq9sIRe3LQwh8tpes8iXvE4JD76kA6R2pQex2HMyK?##
?@@3qtHv+e9Mx41FTL7PUWA43s5dVCnbCnbbo6ob8bTXtzvddaru9Z3yh5sujwJ+r1sDdFK?##
?@@Gx+8bzQ8YbMmqpqexQuOnQZm+UvP+GkuTyQJXQE9u9GPeAuVoWm9kQxzfsI6NSDdgEgK?##
?@@7CRSlI9QEUvBdpvSuZeFMiT0lwr0JmxsghtVQ4JbUhcH1SbOEH/YJSijFPKsn500IvHA?##
?@@cQImHiBSLUS8wg1r1o3WGo5VckzuXKlr5l3B+Xjz7dtvfO0Qry5dSdj8hwJa4AjMyig+?##
?@@tlRL8IzceB9n/r3sc4Uod48aNsidUOYvC6zO4EpkiDkYiOCZY73D/0aUO8/5HVPrrOWY?##
?@@VyM2JfO05QdsGA+kxtjkm7Qi5cpXQq19bIUlNYTBy6mAgR7O73ByYAtF1uf/jzl50bYo?##
?@@DJ6eQbn+6Tj9rIhlzpa5JuehsSHc6egdCiowVBt5joDfU4vpupthhPLZvohTlvXTuPb+?##
?@@FetKXL/VTsHJowHnQqHDrl3fwkK/S2wZ26M5o4tnFl6YKPhxsxTvdDNwawLrkm2to4du?##
?@@Co14kEiC4A6VbBjwtvS2rJyW/vsKXnb6DUISPexubYhOkhFepO2yD2UpKx78AtTE1aA9?##
?@@cxNMz5MoSZChWCP0Q1zKEsj0kjMscxo/bvvNEbk7mEdBEqFs21V3wIsWINMP/9h0jcKo?##
?@@xMxXxWrP8c8LEIpPqsfqY5Nd2izy8vSWuaEfyVY2LoBuLFFP10uCfgkb5brkQIIKRoe0?##
?@@LboUpVzIQxqIM5rmG9jmZtu/48ajb4RpXoztopyfJ2wHyL8LHuL7h0BKDLB2D3Ebrp3G?##
?@@ziIWOdvX8bnXb2I3LUVrVPMizFbxAJgnCLyw+31MgArwyebvCP+Yr6ifQO8rln3qkFpJ?##
?@@6xs/O1GBGzDL97qT6fmg0rUzM6BeFEhJxfukgaLXhQomKtyo6f9qx0/WiUbgIGE9jBbv?##
?@@6AEGMnqznaYbcrlpAMMBDMCe7G3h3EMlN9XtYQrPVkc76SrL8BKqAgt593AvNjoAjvl1?##
?@@fWkLQzN8jUKCSX/TbTUNOUWw1R8NPul4s7C7klbdolLxKK0OZn7v0L7uGXCQFM2SV3gL?##
?@@hre3XlcVZ416kTCS720UL3o7UMrjqV5n2jOeNzCIzPKCld5Yz+5Wc0Ko8vuoVuw6b52d?##
?@@/8e9IwnhEeGdvNKq5wiAOu/x08SNtGPxD46mUISCPfBQ/65ZJtFVB7VjixI5/u3LK8yS?##
?@@cPoTxqiQTYqOl3ydj0zOq1/CiqA1WIj/RlyI+wKMeF/AUbhAaXeDLMP3KNxPGgkMg/h1?##
?@@6QoZi2ahS2yAM3+vbaiILFJy7kWoIH4meXd5NT3Yh/9ybn7si4Q3ND7xdmZRM1YyEmJa?##
?@@mmM1Ra6TXlTftvPA3PUwH/R3ylXPff/kvUWBUlvbnEdz7zI/skjNWOJ8AjSzw99FnrgL?##
?@@o7DhYfKah21otumI1D9JJQKdNFhbftQGTZlWFFzcVYz9+iRTMzyVEaG4lJfncE/7PfxV?##
?@@EMDqovrrSUHBfM1LlQ0n3ozpk5uP0lNMvk9Am9VyQjqvYyv/GrzSmsS+8/Rq0k1F0Lbz?##
?@@fWkLQyQa0yJIWsuYn3HlXaoZZsqWTUh1mHFCzLg02W0hkjzZPM7AoI31EyxDrrd7Jow3?##
?@@BmorL/2nIbP9ArNdTIsZNdEQ6vPZGHOjHufELJb8Gpo0Fs15sMjlese6aSvUyDIiZtqa?##
?@@I2RVMXOhaCGTaM/2WC0F/CWEw50DksBtr7nlTE5iMtv2hsCLQjYe9263dS/Xwgf2N9x3?##
?@@0DM86WcpMqNx2FPTMplhUr1W5rJGdrYLLUnDbG5O4ZhVK0Xh/xkcyAHaGvIwyS7T/Fda?##
?@@+ZRLEbOzemaWa7XGM3GRH7IjajuH3nYd26pN7CcL9bh4jegl2P0bGVkNj9TwzjjACvXQ?##
?@@rg+zLaARpfw8MvSa90eJZLBiEkqGqPV3wMax3CZFgHkGtCxxVyOqdfWFslszyXLYKyMU?##
?@@u3+rqnZgUVwaGC8dHRRkblqsijzGLZxzrjdoX9mRku8NRNvgXFvi+7UqbymxhwkPWSyM?##
?@@pLn0ufANWdVLEdLj/2gAcjjq/hRb3u0Ld2ZVWX7gByjt/a0DLtWePtjTEEoVNJy/j/wP?##
?@@Ecn9+8QsVioW7xZTK1MO7gMVsUykSHx2jVyMx3weziqYB7TccFZ7b29SXGR38ti1AgSs?##
?@@AkjfzUNPelCoWcdj+ZeENUAnqjXER9nCk5TnQ6ktVWDd6qeA3sOZlxATXVstWYaIXpc9?##
?@@kyev27oexdWucI1GB13O0TszSS7qR+y4Aw/d7ErT5th77AGFBm+JD475STrlNg9mvwzb?##
?@@2HjVrOrnNi2tn4A3eytkPyiTCyMbaOADPrmemXG8el6PfJnt4Cq5XDB8XHBdR5gCvqHL?##
?@@zRkC4DGklYto0ke1X74s1bglArwDPttHLbijONLlbjKyJp9zNeQxaxtQDIpYJl1fTgOQ?##
?@@wrswFJpzZXWj4Ay/RclfKs7HezzPjBAzxh9dhx1PuOiFiH1yD5eNKkkQczEbA+cr19MQ?##
?@@Y4obSeZ/u9GoZiWazeNyAO17QfPs3bOUiYpfLGvpknfsJSLSruCpdfEyxbtEFX6UUw2B?##
?@@RH/LloGpReOnbEKBlPCuMq/fVikiAKQ1cLYNIAKpe+clvypIuPZMLJOXxLt/khvqp4yE?##
?@@vZDRWr6ohlm7PHvo7jIbxtQeNBruy6sI+oReADKCHMxjClL0RjuAERBF4XHl+UU+j4Y4?##
?@@PkxYgyp5SGJMQ8AXszdmiChvYScSl9tIlhbvyPU+Y/2Q9VhF8cG14MA6h3xQQLalkJT2?##
?@@x+aQzgFVUH9+zismYGC9XvEpNb5hs7lrBJtAXaYS5rn9PUMSA3GguHRsEymFFBMAcY4B?##
?@@rP6MfCLVAgMzwRD+BbcJzHAzVKSI1UfaCZmM5wJ4tqYadLIKOxnd6TEYdvTbXPHiOUsi?##
?@@LboUpR41/iIyiK+C2nIKsJEOVRBA7mjn/REc+9m7lQ8k4JlKGxkBVgiCQR+PN9MGvwMI?##
?@@4s6TIHV5uVX9G0YIff2DPD+MxYF8uuJnx7kjpXUI+8XWk/TDFhhAxR1uSxEiDgjG/Qc/?##
?@@t1xeSG25l8tJGyg3AJsMXzzRnmLrEtlZysADVFbFgnAppMKIYDVplOz6UwalLeazzieV?##
?@@WCtJffenlhgajzEzJuHTrTJpoXBqePf+9GAgNwo3VbcjiRu8AHDRMXFSjSX9/DmjgdlI?##
?@@WTRc1SzAeYcQNs5HZP/RW38QbWfj1WzLj2+RhM2LZVEMWuJ0Qaj697EhnSsidMii1eLh?##
?@@2on7XZWx1Tq/nCxZJ42Sy69v02trEY5JRndbsmfBoDdXs5Db4LAV8Ol1VDfPVOzEmo6F?##
?@@g51+VafJA0cfABjsY8lBW4ambgVUI54U8pDnBQ0Sk0P3dASZom2EPgXOX2wrRq4Fw1k9?##
?@@VAn8HIMK5qkfxW75Dw3kcZ0i5mt3m2FZnoJYNcj2fdBnXPer1+DfgHY+brsFtZ8RkWX8?##
?@@ab2NW1L/FQRr5rjICAxiyNo5Ogp/jgshw3cXN6Yuu889fF9ReWuprKqEJ+r/JgunjoPw?##
?@@1meu/Hs2OmeFoyVP96NJ2l8txJtX64x5TCbCP2Z1wjgGRNRLV19xEFCohh508X9qZ+hG?##
?@@+6VxwS9AqmZHKMgS19jsZCYaIlI1/A7fmsSR8LBgs/cZRsnbzxc7THCTfMpy+QCDgpOe?##
?@@YHDiQOCAkrSu+K5XqTGgHn0AcD3oi3/mdqaNtmlUteOPbXvunEe+A8sGCfT306X3YOnX?##
?@@FetKXNicPty46Y6Htlu84f/ls1cWyla3Gierlo3XGILX9Yo0dg0/TAy3Hzv+mQbYWcHq?##
?@@rg+zLQaCk+lL7q0XK8lGFgSZfNKkerp4G5Op99xUrlamuO6n0OTIGXU2rjqDJHwv2WLO?##
?@@5/nz2v26U7tyNWMZl+ldjHbF6IJku1xGF2mThBnc/xPlyAssbNgjbeQvKxVER79nVP93?##
?@@zBHviB7qqNk7I3RtX/w9jsZwo807lVg+LCmio1KhA/kRv5nElQFEr7G7ftaRL7Dc8TZV?##
?@@+ZRLEWJJiPQRRpSOUNIK5Bf3hdziB5/q4CXy8Fkt1Dg57EnyMpGc1bxkSAw0yXRP+tqg?##
?@@itkDwLExuQmFn9prUE1bc4R561d2FaasHOBI9BHwwadUNHaiJIvn8DkSWZ/QHxbdH/Ak?##
?@@W0WChrHy4NTpxXHBBbCTAf/ItSqtO+zWT3EUFNZuWFAJB9YdM3FDmKIlDP3R5l7XPLfJ?##
?@@BFkFflNdf/HqI7z87CTZXhdZx/X1v4sNbSS1gtnK4MbEI6QdFM3rprSV0RNjaKGFOyxI?##
?@@DaaxmQfYLSMGcFG7z8LM4D+huDLh881LjedlJ+9IdT+OzKyQyBQew/o+WnF96lsjNUmR?##
?@@6hMs472AEpv2AOc3pEeAG2HXIMqgSPFYHD3aM8COEZk1G8/xnwCWpkS+qhbpqUypHsJM?##
?@@L8s6VlKrx6aFNlh+k7KUE15jsWbhqcWq+JP+bEZY7gFhKKTTi7JHn17XBGtkJwgRipaP?##
?@@NPaZELMsDmyuW+1NJpJHJys/635G7mm+JQEfQrffsyi4W0yXz2NQdqxglo36hkVESy67?##
?@@BWIY1gh+g31cxMGOU2tI5PhgjvhLjKC8G7AEvxx7EBtSrGgWeo0jYSTV9JX43UeRJZwg?##
?@@oqjOCLCybXYq1J+NNqQLy3W1+qbUgNM8xazEUhFGQW9plzwO63taiIT3DT4OejdN1kUV?##
?@@J4ahk2L5QP1uAAv96z7TlDPxYvnXS283hOgBorXiGzO6AMDl5k/cZVimfk0r+WL/OLUd?##
?@@DJ6eQTO8LDNHQotODun/aI6x10nQvbngJNo4vqKb4elDhu6KP+cL5RPHDVy0uhSuVdI+?##
?@@6QoZiyxAKD1yyz0BzqKK2UVl93oxnbzUnML53fxxOqSsvCWwMSuCxxBH3+V+V/Gcl12o?##
?@@quxmy0a8y81Dan+5aVtWCGavV9UuCtEUH1uKt8D5rYNGGMeO44qlHOrcUVQpDfPEhiRr?##
?@@J4ahkxavwtCluCwG0DfSb/MLNYinaXBnmphtxZ41/XMUG2IxiLt8108RGSKtfRt8zCxR?##
?@@ZJIuoshdW9LBgyO0wwx72l7IN7GzkvPz79mO59xPue/LvBaM0uG8dj1KCA4Nb9la4Evl?##
?@@SaoqUCvZUrhI+Q6khFVN7g8k67To5vUvkVKD4gaK70WBYUoo1dyC3PeIqIY5dzXtaq7N?##
?@@GhapFu6Udi9kkZekcSX415VYlLBPMS4kqy0kOsRkyJYyQG/nhRzsb7j3euJJZ2yI8q3d?##
?@@OzIfehW+EXCXml/rcq9SzsoIpJuWFQNJ8eB4f2di/I6BYuy1B7ENtmFOcAGU+Vr13U5d?##
?@@ZJIuor1mioLx4R1Bp16ocOILkzg3No6u+gRVRmW3r83N//z315aXd8HD3hVY1q7O2QGd?##
?@@cQImHrxvny0+rY821wr3wy6hDh83FRWujQGR1CsYPgDkn7NkmnPj3Df08iI0ESoNg2QE?##
?@@+pxeaXi8cBKTppIG+/tvv9tAsEsdTYYGT40+rMZs8gFjVr/SthkLaI2hkgeAIs6lged3?##
?@@h7/KtsT8IjldZiXTO/bV5Mc6JQYwfxUP3FlhcQMjJwaBu5EhxiKdVhOvlj+KAoHZZgWO?##
?@@8Eaf9TS/2GcqnT1p1nzKaotnMEUpvjm2BfS+32y11y0F6WxAkpd4c5J1d+X9LgKocdgU?##
?@@nX1uT7pLaEt4y1kolgH/fULofRMHizWI7z+xQNUlczRLrYjHBHiv2UXUE9wouuGEGqdA?##
?@@di2G2Mw9K5DWJA3fa9DrHY7Vkx1uiy035gkAtdQBw/1A82AIsj8NwYB9FzDoTGvurr/8?##
?@@W0WChhZVzz9MOEPlr3WsCF7lW58MDGySpZlrk8Hbgc7/K5MKnJghwvk6Fe07E+YtuZnM?##
?@@FOM3BJa2setyrT/APFsfyGhO5J7RB57YSTZX+3wT4NmXvB6d6z/Jm7ZuwiQnKGpdAYzo?##
?@@9XH+rySCIiugjH1eE/K+scBoQFKgvroX+Au6+zA9EVbfEbjfbwjmBYQcLTlWQ3YzLQoi?##
?@@2on7XSQmrPJ3ggZk3w9SGgcjlF772cS6LLov+4xUo8P55CC8I8si2/bGCDVQolItyF29?##
?@@v6H3Cw7es3eDLx+jUOEY149+XL3YKE4wHy7frKZP+3FfKWCsJF3rFYW7NgRbDuuSq+Cr?##
?@@LLEBTb1kNrz5of45MJ8OXCiS5oK08hufXheGENP6tOLXGc8ffTvZnuRL0Qw4yIDHNS/R?##
?@@lTjVjPMQzP9RYOrq5k5nZ1AqZZViiwkHxyG6epql0DLcZKa3/XmuOc9f80Ypi+kwjZx0?##
?@@KqDbnKhSR9c/JOcgY48Y4Wlp8dxdv+xaIiCklfXb00lYFz5Yj0T4C9R//gjYs2S2TMjf?##
?@@Q3e4PTD0+ff5024YznpWU84Td5pWpJEfdH44p3YuQ3SilImZtldtkmrC7v+XKEo2QEwh?##
?@@tEIlP8/O4p3NUvP4E0nmAiBMj1FsJLVikwf75oreVBXtIlrLVzxJA0WwTEKbAPLfLlil?##
?@@tUs4l9gLGcm9OmoZECV5PknP6F8SFv8AQUXJcxGFFpOi0TB+t2UgxY+LFWYKrZ1hLQ3F?##
?@@YoEI8YDAhVbkpy7mwjAkePfVcDIyuekCq9XmDmYmrAkI5F7wGcpsdrGj6oEHs+7eKapA?##
?@@l0n8PBjRoXgKaco0RCygASIG/1syL19vw5ORluOVn5QrxD2FmzjRT2gIQLu3I0O5EpYg?##
?@@7CRSlJIT3iXb7PdbwMZ964KqGN3OioQhiPEcJOXCM1BL2txY9HkSWsqkAw+5OCNNDrVS?##
?@@6QoZi0IzFyLogsXyrTCnDcNAxG9Gn6KUWz44SAGGiE8REIDmqSo4B/l2ss6jNy7USpVP?##
?@@ZqRUUtW9is1J3iCej0//FL93nrhj0BQvC0T8hFqxUCfkQTp8uVfBPfWoRb4QTIuzE40m?##
?@@L8s6VuPaNATUZp1k9mRrszE0p5bq1YYLN7MS70xtuhZP4RkjTDYq1fyR9ZZzXqDNYIAk?##
?@@ZJIuojUU83XVRY5kNZz/VHFat0XO9uR367FUE6HD8tCLMDzosSEez55w2X6w7kPKRXFX?##
?@@rQag1FTmcwMe8sR1fOiDAeE5zYNhd5iHIkllLu6mR3Ob+KuiqyftbzJ5hjJg/3IRJjij?##
?@@bujtFYuQfHCWNgDQiG6V4kNSzjfJ813/+Z5wfafIWEmzNbm2mzrlWiPP3WOiDwJ4PdH1?##
?@@l0n8PD2ti4YegBDp7kWLLl4y4kHJU3CQlNwzHLMyUrv2jDNKmLxDxmdueZu9VZ6fDcVn?##
?@@MNNNrtF14GxNXREstvQ0MaIweUX4BQC3IXgWlsSinu10Zm5iTuH6hXbQAsrzVhdTavtz?##
?@@pcEHEp8RhV729A9yfClzZD1MCdFR/VZmgaDNUnqi8An0McGbUnGOGsTwDyumfo5yIHxF?##
?@@quxmy0iHLkjLRLxaqpXvQMbdCwIZPoRuxcD7E2brrIbrT3y1tyZ5Pex09nXd50lODQXo?##
?@@T96dYi4qL7FgWThFN/ImQk/nKLg70eUzL61iSIiwcaJtNTJ4U5rKFUv1LlGnguHzWih+?##
?@@xMxXxZ8RgZ5Ed4XfHoFVFYQRbWBmeR+zO5cnkGMCE4in1yWgmjFTdkd/sOJ2S+sl6ni2?##
?@@xdVqHckvzjRNvPYJMtqHqmXLHtYn2lXvMsgD3krFWjy45+y0uQ81pu/YAcXPn3Zi1z4f?##
?@@+pxeaWwfcvSk1kfDyhU6JUDjvyjD22DhQymvK0wwhPJ9qC1+4aQOZdVg7i4ifLmvXLzm?##
?@@x+aQziw6HJ4iPX6sqWGFasW1b023q40CNq3Vrr52g1dgAi7rl6+zfPI0pXMluBJLCsTc?##
?@@SKIX9++s6JCHBBUM7EOk1ZXmlOUcTdDPkmXpITkHxaTVurPPzsRuuxmq5IIwn4d6F7Lr?##