* C:\Users\Jonas\Documents\psipce\microship 2\MIC2253_Startup.wxsch
.print  ALL
.options PSP_NPT=10001 POP_ITRMAX=20 POP_OUTPUT_CYCLES=5 SNAPSHOT_INTVL=0 SNAPSHOT_NPT=11
+ NEW_ANALYSIS MIN_AVG_TOPOLOGY_DUR=1a AVG_TOPOLOGY_DUR_MEASUREMENT_WINDOW=128
.tran 5m 0
X$C1 10 0 WEBSIM_ECAP1$1
X$C2 16 0 WEBSIM_CAP$2
X$C3 12 0 WEBSIM_ECAP1$3
X$C4 6 13 WEBSIM_CAP$4
X$C6 14 0 WEBSIM_CAP$5
X$D1 4 5 SCHOTTKY_DIODE_SPICE_V3$6
V$IPROBE1 4 9 0.0
.PRINT I(V$IPROBE1)
.GRAPH IPROBE1#P axisType="grid" axisName="3" persistence=-1 graphName="Switching"
+ curveLabel="ISW" analysis="tran|pop" order="3" xLog="auto" yLog="lin"  nowarn=true
+ disabled=false 
V$IPROBE2 2 8 0.0
.PRINT I(V$IPROBE2)
.GRAPH IPROBE2#P axisType="auto" persistence=-1 graphName="INPUT" curveLabel="IVIN"
+ analysis="tran|pop" xLog="auto" yLog="lin"  nowarn=true disabled=false 
V$IPROBE3 5 6 0.0
.PRINT I(V$IPROBE3)
.GRAPH IPROBE3#P axisType="grid" axisName="2" persistence=-1 graphName="Switching"
+ curveLabel="ID" analysis="tran|pop" order="2" xLog="auto" yLog="lin"  nowarn=true
+ disabled=false 
V$IPROBE4 6 10 0.0
.PRINT I(V$IPROBE4)
.GRAPH IPROBE4#P axisType="grid" axisName="5" persistence=-1 graphName="Switching"
+ curveLabel="ICOUT" analysis="tran|pop" order="5" xLog="auto" yLog="lin"  nowarn=true
+ disabled=false 
V$IPROBE5 6 7 0.0
.PRINT I(V$IPROBE5)
.GRAPH IPROBE5#P axisType="auto" persistence=-1 graphName="Output" curveLabel="ILOAD"
+ analysis="tran|pop" xLog="auto" yLog="lin"  nowarn=true disabled=false 
V$IPROBE6 2 12 0.0
.PRINT I(V$IPROBE6)
.GRAPH IPROBE6#P axisType="auto" persistence=-1 graphName="Switching" curveLabel="ICIN"
+ analysis="tran|pop" xLog="auto" yLog="lin"  nowarn=true disabled=false 
V$IPROBE7 2 3 0.0
.PRINT I(V$IPROBE7)
.GRAPH IPROBE7#P axisType="grid" axisName="1" persistence=-1 graphName="Switching"
+ curveLabel="IL" analysis="tran|pop" order="1" xLog="auto" yLog="lin"  nowarn=true
+ disabled=false 
X$L1 3 4 WEBSIM_IND1$7
.PRINT V(15)
.GRAPH :15 axisType="grid" axisName="4" persistence=-1 graphName="Input" curveLabel="COMP"
+ analysis="tran|pop" order="4" xLog="auto" yLog="auto"  nowarn=true disabled=false
+ PROBEREF=Probe1  
.PRINT V(13)
.GRAPH :13 axisType="grid" axisName="3" persistence=-1 graphName="Input" curveLabel="FB"
+ analysis="tran|pop" order="3" xLog="auto" yLog="auto"  nowarn=true disabled=false
+ PROBEREF=Probe2  
.PRINT V(11)
.GRAPH :11 axisType="grid" axisName="6" persistence=-1 graphName="Input" curveLabel="OVP"
+ analysis="tran|pop" order="6" xLog="auto" yLog="auto"  nowarn=true disabled=false
+ PROBEREF=Probe3  
.PRINT V(9)
.GRAPH :9 axisType="grid" axisName="4" persistence=-1 graphName="Switching" curveLabel="SW"
+ analysis="tran|pop" order="4" xLog="auto" yLog="auto"  nowarn=true disabled=false
+ PROBEREF=Probe4  
.PRINT V(2)
.GRAPH :2 axisType="grid" axisName="2" persistence=-1 graphName="Input" curveLabel="EN"
+ analysis="tran|pop" order="2" xLog="auto" yLog="auto"  nowarn=true disabled=false
+ PROBEREF=Probe6  
.PRINT V(14)
.GRAPH :14 axisType="grid" axisName="5" persistence=-1 graphName="Input" curveLabel="SS"
+ analysis="tran|pop" order="5" xLog="auto" yLog="auto"  nowarn=true disabled=false
+ PROBEREF=Probe7  
.PRINT V(7)
.GRAPH :7 axisType="grid" axisName="1" persistence=-1 graphName="Output" curveLabel="VOUT"
+ analysis="tran|pop" order="1" xLog="auto" yLog="auto"  nowarn=true disabled=false
+ PROBEREF=Probe8  
.PRINT V(2)
.GRAPH :2 axisType="grid" axisName="1" persistence=-1 graphName="Input" curveLabel="VIN"
+ analysis="tran|pop" order="1" xLog="auto" yLog="auto"  nowarn=true disabled=false
+ PROBEREF=Probe9  
R1 6 13 62k
R2 13 0 10k
R3 7 0 10
R4 15 16 620
R5 5 11 10k
R6 11 0 10k
X$U1 8 9 11 13 15 0 0 14 2 MIC2253
V1 2 0 5
?@@--START ENCRYPTION: "MIC2253"
?@@EMDRn/h1f59/ApAFKYfUUBvSipOCLPo7faItPddEPkX4ZWPkTsqijxPLxdj4h7PDcT3G?##
?@@pcHuDtE7GuaArIQEO6Kk1NCtxwS/wmAwmPsyuyN4kWFMfT1GGFEB/DcVw4cdBdyyXc9u?##
?@@gpRM+x6RL1Pcx6BcytR6H+WROyJ3Vz8iZTLS/zogwfKmQvL9HtW/7TSGSajrzMyIDzj2?##
?@@UwDpwxqdALoUPJ7E2UFWfTGK8suAAk2azaw/GMcbpij/QK/bWzd9Me2ENPQGtBQWj90V?##
?@@SKIX9ya3IY+P9bgLamPWBRKeyaDi4/tgUIHqSSE6FURvGuJz2DkszaJkzNS+10mm6NQd?##
?@@5ejNKRAKDZvFdcb6z6SmX16Zyz8RWZTf1MHFJT2Xjn3slPKiYnjjr1jcCBt3XaB8Lxvi?##
?@@bujtFRhhTuh0uZCKzcBkcrzSgx1zIpZYTBZlpmcsi8QauG+XN0Uk0JnrIUtCBRYlGwC8?##
?@@R5kEn0Xoy2ThGdfBGEK1BMzvbm9DGMeVWLwZqTV+8gk5MCEP3PwWw2k/0vXny2Lc73lA?##
?@@KI+062FLMktaU33mOuQh6nkxUIxcL5HzyNo7bEtR/a++OwtOdZZRfoonIGFw0Ju8u0T0?##
?@@idHwZwnMZZBIwjbflzoDbSXCNkZBCTX/uJDThcDdxobhaFuV2Wgy4vsg+dcPpJ+pHLcT?##
?@@ygDJ14eTjc3mSV63t4/I52B7Tbb3/JUXfQuSzAYS5cmJNpDb0uLozDCLEVkSex1uE4Ei?##
?@@D7jXShCr90/Szt3jdryP2uiB0EW69p76hr3ZweS9C3JA0fWjQbeUsQ9856qOmjPom8js?##
?@@MNNNrqPAD4nf4qqqvjv33crTVR2ivZ5NRcH6xQ6ahbqlJv2RpDQ1btqqxLMmWvKMMO1m?##
?@@lTjVjF3ydmvYcHQqwhm5RqsEkfetCuy9uL2BEZHO/tdfNXg+4HCuq1x74iMnxnGPuDJX?##
?@@wrswFHvimakZDn0LK3m7KoJQYDFDcfgR/9NULE7wH2npjGqY47VD0Gjm8rmjKrGQmDC6?##
?@@X2fO6FUIIGuxeIebOEIvLlGbfHFIv4Fme/qH0RUqFywlZ6ge6AeX98AipnpkkVDobKRB?##
?@@0DM86TVuTv11YyeGy/7PHQXPT/C0bv99vcLzoRGzLIVbcTHtlCGyBWwgez9Ivyc+6WT8?##
?@@ab2NW2XWkSAqGuDas0MzUq/fByy51dNW5cUfanJlYghLKvAxCHxrCsYZG8eCAxHocoUe?##
?@@BmorL2X60i/ZJNcz0gPjj4PEkcmrkjkBTB95YR5w7F1sLtQWNBO7UjPJTtebvPtSmcRP?##
?@@o7DhYSJOkJuBGuR9yUDq6eN6c5UJBh8wLttuDS55QYQd3O9My9S7wfVeDc9OWKW7lA7J?##
?@@yO6jJjhd1Jw+jNUtTHOdySlDGnH4uzlRnon2LySxB1ZAsZDbjKXIUC+pEvfdqzeZOJmY?##
?@@6QoZi09zjvuBZSKv5OxDz7YHQN9CUCpJQ+7xa5QK9xt0VWVFx4FZ0MZxSLlO96iRJJkt?##
?@@0kRimkQDdNqBUQ+vk+RCscmNg21aAh+B5FQd7HDK2I4RqT6+cx1LnYLmelNqTiUG0dZH?##
?@@B3M+h8SNlLIKN+NJPvKGp0JbbxuXZTMUvWPonVLTMfDmNAvv14nAcZHcRe0DEAHKOHuz?##
?@@zBHviKGMbeT+DzNnYQXOdbBaPSTZKStskIdUmKwE4yos0DyOYFU47Gu+9CreIkSv4YlR?##
?@@ha6kBhJuDElpr3eyzptW7u6OuZ/IhRFqePnYKmFtLKNxZG5ndaYuwzBaRhjVEEQm+dLK?##
?@@6hMs43H7LYj2FuroxWW+qOYTb266c3rLpiWM9QwLRKFPm7/F/ESA/ijiX1jVTRXHf0yT?##
?@@12/BVMZuJMe+RWKArvZLmo9DQgujAHZ3hKdcQVtzxk6R6qagxb8u0CFBSJPlP/OuZcQL?##
?@@gINETN8A7n25jB74Zct7/1aIsjCHKHo8uZuLrQmqPiDV/5Goz9o3qo4qnzbJPC3Idxmw?##
?@@mVoi7fiYpKeihyDrWLKLu7xYbOK99+w0XpZdTEe2feMF5O0c+OaDxV4nZecCEHOe8MN2?##
?@@ziIWOehCl3KXCARD0Fq4n7a0cyefyUrKgleXCo27Jk+QrQgE/gF1/1W9I3T4QcFE6AA4?##
?@@T96dYtj3c1j3Q2r8+3u1UhYJeOssUymxhzR3utgbIzhj4/LEeCkPEwV244saPPgMwZBV?##
?@@PDsy006SCs9bRlHQ+rBV88qVX0/XdqR/RW1r22De+dOlWATW7zcSVA8dauVY4vJt9S4b?##
?@@2YHoBW3H2LnFEfHvrSzikIbCK4q4/HdDVvh372m0gxmg1stp2fLL2a0YseJmFftCXa+y?##
?@@UvjWawLMjENTlvMVlEyijkshaLtm7/sfzstrBvkSSAbNrparFVGI5tZem0zh1waFrzb8?##
?@@M+2GtwJfwKA47HYpQnsdsK9EsfBpMmfaImHs8lMXVbJTjNDQKMZJ1EJSkgYYtcQ43qUg?##
?@@IEocKG7wqF6p8hO1jeu5tnvH+axqZPDUpFKR3I+og+bijKz3ripwJNWkhpHvJZmr9iTS?##
?@@sSnsNtOHKU+EomZ10/sFcdMSu7uqugbu/UZ8Xdtu9aG2JxInPT+OeQLL7dZa9uEnvlRK?##
?@@bujtFfnQrmYrQHOT/WRp1bhTZxF2pvqnKhCu/AVr9fndInrRqixzk27BBPzshMaX3Qeq?##
?@@ywjcMGKj20j+RqJ3OmpvVu/alf4C9n/7gfEkQd8uTPwHB7eEOiElyKN1T05SHc31U0nv?##
?@@lC/CM69oJTtbxtFIcs2pYO1+u9L10T68HmOmZEn2xFfTIeq2eQMfm20JloO069OXcKJ0?##
?@@Tc13saq3abOsD0YKYiPdQYXZL9ybYRCDUox2NamaWufXzU6Uh5eENhCTy3W8Ecw2XZ4V?##
?@@OikMItbmuDgznbOdgC0hHZL7h6/pt5ALCm1KgwrPpd4Ypn7bzADXC8xaXi/QmZFsO6eO?##
?@@v6H3C5kUgWA9wI+bHMOARx1QXdpMzv55NVlcZGul+QF2jLQdJY9zlxrCJYoXrKD2nEar?##
?@@lC/CM/xemuLoWxj880fpTdRrCxTaLwdgpG6XdyTWTkRIZrmz7nRXlNv1Wx/KbLGOn76f?##
?@@lTjVjKCBSlmSNgujT5cRWD2/BmTFN1SVLZEz+NhDu1fG0anZhuspyDOxPRIwrRhRsyK6?##
?@@vpjks4CUaz/MQ2jOGqHi/v8UTMy1fWsmMw3siXQVngCydNVZWwFWUGGMlkus61DQxZmn?##
?@@M+2GtwVvyu+XZ8xuUHkQEPXsr4azgLuDGT9ShvP4VSjDyJQ2ZgJc9MEIJ1PfYAcTGhY5?##
?@@aLV6AyV0HWd261LmuupDzaiJMdzhOcx26rhl7oltVyDQ6RRhwDDgSGOXSux4sh/CSYmr?##
?@@8U+yTuotSyqVdDWG0WoMY2ie7Za+v3f7RCpUh+oDu4b3/rbWW2DcSJZAzBFkZubBAUsT?##
?@@Jn2OO0eIvH9fNXdQA+KMwUEXVFkday/MhyFuE1vAubo0A5onDMXqx+FCyw1MPRay8tcE?##
?@@dzaZMQDssgalfh3//dpRXSj5TTSYxMLP+MjyW2WXM5E/ycYwGzY5SP90AQ/Zy46Ca7pq?##
?@@gINETAORDfWaXysUVDO/eRH6mJXttb5RpO7b2p4PkJg3dSTCYbKKZoh5jfAAR6y7fEbM?##
?@@XVaoN1ffVp17VKnv/W5R1NqXF1zF1wFhVVUpsklFhFyBiErA4UiUprbNRi1il75OxU5u?##
?@@IltC2XHKJnnLBWEcLRR/M0Poqjf8vlEpZSRbq1F3D/CqgXhj/fBqSTEggpAZvD+6np31?##
?@@kyev266X0sCXsmX9Q1tvcT4AHeMvFQQupjmboN2qzM4k7SjoGwOLkojymoYFHaAddQ6m?##
?@@1FaISzELnuQyWdn4xV7vAO6t6oKxWzzIjNeE0GpOhPZfUXnFD2GKY0UeEFHO7VCfdVNH?##
?@@WTRc1QW7wwNYNZHiAJa/dC2v9U73qDST8a2x0qYQrNR94AkIbetVS+dMvgSLtWKcscev?##
?@@UvjWa1bNcT3IZnKQnIE/JdriFK0BUiuf3RU5qQsusB2Lz8Ly3Qw+IzADjsdK72Bd+anK?##
?@@e1jlkrEF5ew0vGqrCx81QCBwqbr4n7gpc5VoVwcZgIXxJLpsIW7zd4ZcH0/7nhuoY5si?##
?@@fGH46g48qayv1u7QRXBFwXAmu0gMEC4FB8y1lOTzLXRGijS9dob8eGwYmkxD/INe1z0F?##
?@@HTDiHxuob56Gr5mZ4WO0hTdAp/LuzntPagZA3lVS/JLgFu3E4TysDByeXPIXCaGWHT1o?##
?@@sjH/ji3y8yEpt0rycCpt5KfRygGN9O1ERRmkiuvL/edKE4f2lkawxg7eyb29LwJWY/bX?##
?@@szoS50ydfF+ZU7ZPvGWnrEcNI23LMCI3V2xdiket5/5Ml7Uvu2FdmdClsZuB1IEiI+ma?##
?@@gINETG0LiPelXq+qbIAYVpvkX7OITwwVx8fxoZpqLKFZPBmc/limaVOw8XduWFrDyhX+?##
?@@oZ+6sDOho6TQDhrPlCKCioJBQMOc2P5dGdhTjWRBsMy2PUFyCVe3DHHTgtRFe+UQr2jA?##
?@@Jn2OO2m3gWDyMhO5pEjF5YRdoxg0DE1DPA/KSob/4V7ntWfYRKOsz5BRpg7un1+uoIzj?##
?@@o7DhYZ7BrXvxrjQ6NOAfFolVTjD7ZHAsIXUVisVX3CyghJQo4bEE5I+61Ycgx8Ibo7io?##
?@@cPoTxujRABlcD5bZML+NDaw8fqzQ++ebBu1pfHjesg8iNhfWCaWGruppZ/gBbJM03BBf?##
?@@mVoi7a7G9N0ZBMqODfFr1Zu4PLFYC7h/EZxuBChhmLR2K8QTgcBb6TPWIyk8ZuiB8Qty?##
?@@5vDggvqnjjrNaGBWOZbggvh1iSkNUUzNtGavf2HhTiu0eQhYZD+y5htdW6Z1qe8KaWJf?##
?@@49aneAPPv0J/WkrOchSIj0tHkW3TbAWp9Vr6yBtl4idt6wcfV1+UPIDFaru4I/tOLi6l?##
?@@NPaZEC1ORcMYPMkWHG6h8te0R+UNIujpVmPQQRypo9yeU+2OYHXI6y/XCG4UCOcEJm2x?##
?@@cQImHmI7jeMj1d00KK7P6z+QifigqXs/88eXp2iUyZchecngBBpJ8DsN2ExDhVJsiuNt?##
?@@hre3XkS9ZYb+fRm48d6j9qRR88trxEQlO05q8paxWTeRr7QNPJQAVIEycv5FWKnm0Sq7?##
?@@H0EJ0NGbjdzzWgAgNYlcKLSwhMOtNmANIjl3RXYaag5pXajoa4KUKKGdeGrHINY8m1ni?##
?@@0DM86YIUncnvRILfiflcnjlJVGvjoMaGmGCMbBDSYnuIu52M4pNqLDMYgA1Z7Wc6cd+9?##
?@@VREQdKQxlK9QpABkQac717QctNopHV4dzzLKE2dn2SqNDyWDTepWnBIjk83UnXZs1GVY?##
?@@Hjn1eDVKNzBfK6/8MpB54J+CsQyJasSagVy6Y5hNr5k8KK4Wq25URIMy/W+Omm0dp56w?##
?@@Y4obScnW2sDh4PTRrM+GW+KipsQ+/zRZOpYQap6WiwWDY9YQtbCFhQSti8tRjXtbBDtj?##
?@@QF1/NEtoiLV9oKLSzFM2pMH4HDBSUCfbtB8RAS67K7eu0S/tizvnHfabE4PbSK9EIiVY?##
?@@9XH+r1WHHbo7hQIPrGJ2APVqjKSPV+oBhKLpK2mE8q1ZBvtvzL2UV484dUE3NKonnfTR?##
?@@tlRL8Hf0J10hnTM1y4gGDIAVJY167BScYf8mVR3zUNug+CXzqiSCuy//Piamc48lYFbO?##
?@@C5WL6b3L7iuWPtiKD8LHP/3EWdkDwRXAyrqtaq/UMT8gAbJzXGb7jHnjC1ksVY3eGMnm?##
?@@zBHviL5tTiD46jTYKGDHBUNrpxCCh28fH9+GCb9y/rqswcK8lWuVHHVrUhdEDFVLqfbo?##
?@@KZfHRFhTX1ef1Yw1Bkxr+mSkFTNsfyth1LjpA4OBf8sec+9pZelda2IOOAULQH1gKQY1?##
?@@elDSOg6PtdxEMyNrcdwkhc834HEbNjhbKpInXGr01+4ebdbSt9bJ6+7YjX5+MDYf+OlP?##
?@@L8s6Vjc0Dh/b8WNL1khyRshIFiFWSytlm82/FUqtInfgM7njJhn1n5jNgOejGAervkMS?##
?@@5N+60d6ahbTGhcavuxSWALct+d9OG5ZrKMwkcsOKnsLcsB7kXzhkNoRf5jvnMmMUdBIP?##
?@@tUs4lxbDq3E1irtWEdLLUhGt3BE3To6x5jKTO7PboTFTCqyWD6U7v/sbwBLzNrZo+AgY?##
?@@fnIemwGMrlyJAyn+KHrNU8WaiRnkcC/DsVdui1g4YXqvhquapLK/0yv9c37tgC3C22xg?##
?@@cxNMz8itNpq1ooSZ5Y8zVP5Smw3OyHgz3SCsEMQEUwHbYRml008dFs3L9qgwVXJvcH49?##
?@@5N+60RO3a96jrxz3h0xl9YcDSyrfT+TpXf7dF1DZSq7kF32KH+MhW7wbKaxBcquyWdfc?##
?@@4cWAyDfxB9nIN9yRnR3eF1Nu/ocK0RjMRs177z4rJ6UykdeqnZVor2IA/WaZnip0PARV?##
?@@NgfAwcZMWWNjszQOoXlADtDdu7xa87hwYywgBu1MBpDeHm7o9JaP65i/8D3QFfCv7K/2?##
?@@ywjcMIBAWek+g40RQXOHWmvzJKQ5MxXi5ef2ZuM7o3vQrBzYhNeYaWCZYnNtyXpIc15l?##
?@@gINETEBzFTIMct8L0s2PixlNVWX8hwwc3bFPU5I6RyuVqBtuFWEB6Jv535kuc98GgvuW?##
?@@uW2F+W1VFniP1f+7RhCCxJeaFNnDIPo2l3rgAOn7Ibb/wuOpXaCQoam337gyaAsOKOaj?##
?@@LsIn/vKAnKneXZG9X1IC0OSua56ZaJqZsWfkKZfnpzy1Dymb+QmUFJHz7v7p89OrjAb6?##
?@@H0EJ0EV1uMDOfT6aAPeDxZd+35uXiOcaIkn5RAlYUjhr43BuYhf8POWGNLJ12erNXWpa?##
?@@XE6V320yv76puqgyftaRabAR97M5NjUdT+ni0/YMiD1W+RtYgnyFj0jGpYYccJUrsfzn?##
?@@mVoi7bVzwMWBwIaawpXBcyTclfyG/fbWBkBYt8HF8L99FweMx7BRED4vaKsB5wwM76kj?##
?@@gpRr/cB46yxMLsJJJG4ynOYOvV6Csue2vLGj6SZkW281dUCmEUbpSzDB7ssUa/DSU0ud?##
?@@q/V5JOD0cvMGQ0kK8WVRvbEt6R2Y5NBtoPotyUPH8psmGF8w2/lMyy/72f9T5SAsgkxM?##
?@@0DM86elEL1m9NbVdXGcxhS8WzxpCPshfVlFg8YGbp7TrBx+j7lSMxCUXGkEkIpIH/day?##
?@@mVoi7avI5qipJWdVNBeJexvPe0rDOpM76ipu+E/QtptqR0FTX9UTNs/yDsa5swdUMCKQ?##
?@@asagtIb4FCrJdlqn92GgWuU1ThGqIsNv6JTN1ehOwCnJq+ZTUn2IPKrXZngfoVmydlQ8?##
?@@l0n8PCOY3/JXWcAd527m6ezlnAGroZss3aX/DhSQkmGHqO9hHogA6sfoGpgMxTQONty1?##
?@@YHDiQGEp5SMRVp7pQtHrsdn33Aok89w8lvd07le7Hg4cZQGaPG8Gc6TmVzlD7EiwbA8r?##
?@@XVaoN8/bSGh8P5O+zh82oxlnLJmiQdtWhpnyUEfWQ5g4IEi9l/e7fseED9Ntg8O+ptl6?##
?@@elDSOpCLn/nPn+ugMYcNs0vPpRZPEEHwCEeJznEDSR/wbPtoFgK2A8yG6DsAIe+t4x/0?##
?@@Y4obSYveFDwApAbyT2yQ/5M6h6W5qIywWL+2XE46NLPkyDIXDowoG8+zNpCMfVjRi4JH?##
?@@EMDqoi+hVmgs3hXOl5IXe22WKtq5zNiVR1yS4bC9aejuszYOEdM5qYB8RtLjAwbyrQLU?##
?@@2YHoBVfseEuauloBvtrWsaF+gqDUW4JDUR4hTU2CmVSqbY1Kai6O/dE+lE+vuLedWMc5?##
?@@ygDJ11qSgFX31AvnKPKfhdNwra7LhmdjsDRuDix+T4k/xqTh3kaN/mki7sPHJhUWjVYe?##
?@@49aneAMc3Vbm3++Mvw01BWcFKvUQRrfKU/mjlnuV9kRq7v70Mj6bBOBGPUqY50o6ERih?##
?@@QF1/NGSCbYdIwQCeEq5OGq05AW5ATT0j1bJBrdwAi+3IkCweDndkptpXkd2Lz5l7l7Sz?##
?@@9XH+r8qkXziB7cOI6lnpkfD6fx2cgDSxqZR/rs1Hf8waKirsgGDbdpJM3b9lJcJQGN67?##
?@@YoEI8ZKcmzYUeg5R5jLnoLcYdavECcsw3JNlHKltyI4CiONeVH2uCbwFUQfPm5nlYqm4?##
?@@D7jXSm/cNacUoH4aIVIvf6+z+IhIQygZlcDzX12aEW5rNyFMLufaaxQUSh36NO8bR8zV?##
?@@cPoTxr5xMcJvKkBUbRl2BzICGWNjvVip+YcJN7Z2E5lPy+63Qa8cxoO6pBnYWhynzr06?##
?@@Ue/DEgchmZ1/q3slhRHzxFWXFUtvWTxlNv+8HttrAHj3x2ZfA67CGDVqjPDjpM+FH2s8?##
?@@0kRimjX9DCkMq2NyWxSikdqE+TZFq2sLEDZRluIJH//K1ATA4IJOdDmJv2Tlwr5+4xjf?##
?@@/8e9Ixs0GX6I5YUGcSA/07uoepN1NbWX1QUNUDELak3B8jDrWIIQQfjFCczS81eiNQbN?##
?@@dBxfJ8GFb0fkqLo77TpQXbshM5BqlvctpbBSDAggTWQ351tbm7ffQIQoidL9HbRMD50p?##
?@@sSnsNrVfO2cCfEtuDv2q6QivQdsld/D86qFL19hjFfwIumq0dsqWwNfdt1JTNYnxSiTR?##
?@@ZqRUUlq5ScuMNmbDM2s80/3r5Eg42BtGcXG9uwIdPWRXMqQukMJ2jmahZlc/xuPe50EP?##
?@@VyM2JRT3JCZ9URj8xP2bVVloZCCfxtXQZiisj1Q2y2RZYXJYasR2geF3mFdIZ8vL3tIl?##
?@@DJ6eQUxgw9qLl3RHT7OX3g0ViIBYx+BBM5Fw0KRTDt9zpvLk15UulJnOn48gLDsNANsr?##
?@@MdxgB8YXvhd4U2dQRSwIGnNWQqdsgp+3whG1kySZjpXOvWQhtIIeD6iFj5AHxnHrwYHe?##
?@@vpjksxnef+c7z3EGa/PkxV3EGpi3FGz+2HWGqHyFXwjhhjDUOBZ4ySD2VT6I0SnBZdvu?##
?@@C5WL6ccW+GUMqy6ewB8bLCpFcbYaGqII6qLG1aeXgnMZzcsirhJ41wcHJGYU0vl0cOpJ?##
?@@JGxoiqW5XqO3EfLaYDmHRc4DKD+utvdv/DNWUDvPv3zf3S2i2uVyP6lVEJ7sstK1hMxV?##
?@@beDavXhk1Cj1Jz7oTuidlF5pv2JwwBtrrJbODMimLAmXgWAKwhpVIlghFAZDwhfLzXvG?##
?@@1meu/NGFB9vEstAoAAxFYtI4vxXbZqi8XTvu6vKLjvbV16MA4BAkbygHphiqg2k3vs4a?##
?@@A1DyJosTxyp7fUmgcegbsSW0wNauXEltvb7T1i7zAcmREsQ82JcLJn0pFCJgHzJjiCzB?##
?@@jOoqcBWX2VpgK4PPegnaAuiHTuMykliz3Xyq6q0q96BptbJTuPduXzjERJkMFHaTfl8F?##
?@@lTjVjPGhOOhWlNnr9DfQMteqjfqovrj7k4T2/5ZwmLiDZjkPKnExPxFujNQy2q77xWij?##
?@@9noRBysQC6n2Zk3ljPbyV9Hx5JoKjZJCVVWXkGTR/Wx1GlBCNLKo97y/TIuTFq60RE3W?##
?@@37RaF1/VHWf584LFdAHLHdMw4W9F20gh9lJzO7CR75vzTXjaUhSuT+Uk1BPdYAphGwX5?##
?@@DJ6eQQOntuABLFPJSP1YSBX8Om4kD0OU+RN8CU5J6TbovXog63vlgPWmOBspy+u3B3zi?##
?@@JXV74p6R4I1p9EiXii0pOqGMAvzePFkbLnf0M5O8CsRVNnYEGWMLI/i0re9Ow94lpzfl?##
?@@8lfFpg66wkjaQtvC2xKkB+M/dE1ucrDi/bQLlbFZVCRC2iKqo42pvc+Vwzp/P6A0+gCd?##
?@@Y4obSVN3r6yUfLXfJQhY1T471XCD2fQcCeflHcXmcatLvr17YSR84IGaWj2S1iyCrKkl?##
?@@uGVyocjQggB5Qp032jAjqVveaAauvqdMCVW1nptS0W5GO49fNfj+rBWu58fjcPoQQy9P?##
?@@idHwZ4je/ameJkvBFCNXroA/UIv3okCW1GX2pCbav4QkgqlKeKKrkb/8HIwk8m1f8RIc?##
?@@Xl+7jwoION3HPje4KSX/nficIWds5tkGMspBYt1IkcJ/QUWQ6j8nPsp3+ldPOCEimp0R?##
?@@D7jXSnAIQJ4tTSAutuPuiPfP5nJny2+CnzDMIzFoElqSHIm5tYr4kFcAs1mzi6vsAM1b?##
?@@aLV6Azt3to8TfFHeOeSb6Z+U6VKYb1ZjhBnW4C0TWi5aeSBnehkyIR3kAMRtlh4k9Fho?##
?@@JXV74uImPILap+OvqYLxDq2+Jbvuu7YbunYBOjwHkB/tUR7ESL7XMES+KmesCjhfajFZ?##
?@@tlRL8JC6V8RDjdxmBfqb4zfkuokxww+Blog8pjlhkH7NNtObpn/Zm5mRFHM6qGd/Ijw9?##
?@@t1xeSBs8RcJtfwlLSkFsZHQlBEw7wqn+UiCWRRmOk8qyEi6HGzOf6QYfGB1Z3QpMr6td?##
?@@4L1tb3gTKXHyIpbN0sILDe/YHsm/NEs2zV0Jp6KTiKSoRKKm/J4HbchxcFSvIK/6YqrP?##
?@@DaaxmbYAfZqFUk+/WlwuzvDtchFeWs8krgx7JJm2CfeCO2TEw54/2LNhNtqzOFiX7BJu?##
?@@OikMIjjZYUTGb2w42Us3KgMemKpkDyADeByKCkeuhk4pyTSwHyRu1LeyrfTQj1Vsydy1?##
?@@UwDpw73Dm2PTVg+K18t4PGGEQ6elf2YCcrx7bIvlJQVQJhSe9OdRdV3ZAcLWlR2+LM4I?##
?@@BFkFfisRr9DVzX4rhfDC9ITP/VRV13l+J8MpDj9VcvrFkMM8GzkZ/vZAoCZTIMEN21+2?##
?@@fWkLQ3EWlCpbu/6p23/7fz7JoAgubQ5l8kmYsqadyaue2Yr38jme2Q9wc5rXlps11cQX?##
?@@Qm6l5d05cL1b3b9486griqY1zZLJtTcGdef/aAfzSG9wDC/9Q5uZ6YYaM+CfGfD8urba?##
?@@l0n8PFSQuXRsBMMujqUjI5+ag+GQBkkelUROW6phfCAw+Z08tArhOiRatxa6pBpDZnwb?##
?@@RH/LllfMV/OCwvbkjiulVrfvkXqDftbRrQrlq6DNFmN5iVghFDe3YoRRfy6gqBKeB1CJ?##
?@@OSH5yjTEhq6g50wJoPJibL2+8DwKOXCTs3o/c8Ly5NjhM88ZQ1+Q6lfoVWVHX+tLIwai?##
?@@tlRL8N/FM41Vq6KMUwCmLQqU60TW8k/x6r9dRTJCHRmLpKvOH6a41EBALS0LHTjfq1bR?##
?@@UwDpw5FzkihtXIsgd0jUKB42FYcBNa5nUZrtjpjbxiMuq3DdMMghFmGeqlsQAf4DkI3d?##
?@@/K2EGnJQusCDneFNdcUTsqjVIuAA8gyLeO5NRWZ+LPCM46D6TWCpugSDvxZhOoOhTEzF?##
?@@wbIdvE050T9LriGK9WGQ1ASNMi/V+T2W5Cj+vt/jEHCqqeMHUJwdO7qCm7qbelrgToQP?##
?@@0kRimlQGTUhZs6lqyPUbJHDRxF19l3TZGLoIqsG/GpUUt6assM6WNw6LhGM5/hKwOZIW?##
?@@T96dYp0UCu1atWEX8SgQ7aaMimS6+k8oliTlX0zDgzLmJmYWyRiLqvJ7nNX7o0X1RW/m?##
?@@4L1tb49340pTbJdojdEGNYi35QiJRWno/ndi/6c/6GSXbL3CFv328klru4KZxbpaLTjb?##
?@@6QoZi9W+nQls1rbY5TGplpPM6Kz6vT3RiNnCYoyGtXJGu+ogdJeD2a59YAZM/l8n6uIM?##
?@@vpjks3xHVJz79Ye6KONOKO9z3SAVxmNwT5BxIW6F5tUJRbkrzLeTm825B3glN6/ePeA3?##
?@@OzIfeuyMUBAbqUjk0hxeK7+3KaeOdWLJhTu6SQ/0LrduFU+jS4R0sIFRsaAX1t9+gdIC?##
?@@XE6V38J4sNp7yH0mUpIf/eGwFTyvi/X6qEdKMjnyo749alfAuMz0tEvfkZS1pwE4kJBr?##
?@@qeRTc6kobtKD/73hAYQ4uxwxmkmvM/oi6wiKwjd+/kLnfzryXfbYe325irpnu02rJniX?##
?@@lkDo5A71Q+t+PfaNbxZvpAcXj7imnMQXIz1URHgrNCcLrtCHEg42Zv81m2xW5q2WxMDr?##
?@@UwDpw1Kz3/7kDK0/36nxIACmiRfJjIoiU+GDli+yLQlopwHfi/UrjaCa55+H00rr6lNT?##
?@@nHRb9hXOkTO9j8jFvWFIZJ94AFwdlZscrtCTF7Q00+krd3/d3Ybvd2c8Plzhoi0QBLi1?##
?@@GQ6WvjJ1ncf+vwZLXO+0h6QFJ+Buskl1EDv7+qQd4wnSZVnrCDpyjGb8SaZp0/dYwY8B?##
?@@kh6cg8Ma2LdoIgWILBiU8HPmN1qpkFpCYHBCJrhS+BpImQiEEbHr6e6FiGeOTGYd8Ruv?##
?@@94IkYJBVzfqLZndGFqcsC4uw0C9wPMA2fpEk/DvD9m5SIstQT8oxBT6JfKlliu8dhJbm?##
?@@7CRSlF3OwEpvf1x30P1fnvelnjms2bIbFsYaqh7R+seM2kOveu9iZ4sWkcWYzdsn/Qmh?##
?@@QWaSjehgQliQxu2HqQTE+qHswLqYCWXZfQLGCuDKj/SIBv3RNM/w0Ygsy+sY/LjxwJzY?##
?@@RpDxRr5V9uCiJhi9AiGDePj+osHG7d1hZgnlkKEBC7d25UYSpAOUMSLlvwcZZMe8KWRB?##
?@@b/EAbj+RlLF7rZ//xKgBNhmVTV0Vyb0cNa8r0GSp01EnvjhIEvZCow8ALFvpCZFUwu/g?##
?@@iMjdD4gZgWkTvdHtPv16ldX1oxxEunNWBi5HFQNZwvZ6o4T4sLPyk6C2WLpmwalFfkRh?##
?@@sSnsNpDgJ+x8rJED2CrYilrPd6lx4ie8P8ZCmYr2vb6ZdAFDuhREoe/Oy3RcwPZrBhyl?##
?@@LsIn/hgZQO1fsL2l4CGCgwbi8/7Oni/ehVgWMUgnFlTncbLxUlz1s6sbts09Sql7gvnK?##
?@@K6ju9JVa3JOV9XabutMUUxihTFYrxL38rhQdS9gfZsR9loFb5rGOfoMQIePddt2aa70q?##
?@@mFIPlfQNgluwgkg7Fa8pL47o6voiRv8/b9A53gGq1SFEvr7ydPK5WxCI8Hziqhowt1bu?##
?@@Ue/DEvT9VOZGcSLhE703x5ad7s7A9FHNeUklP5FoOROKP85x+P/zORBehCmSDrbTJU5R?##
?@@UvjWa6ryKLuHtWEPzH64gmN81B/4h5wf5Zk89pXral/SRZfVWPNuEpnxiLAVFKEBUY2i?##
?@@I2RVMVtomvmLuAaV91TTLDdTmP4S/OddIbbp/Ts5dFTvpAeeDB4d8uG6zw/M4w1MNQy1?##
?@@OBjmcT2VrjpZokPnh4A50p4s8oLEp2LAnqE+1mnycwrZfpba7sKNxafzrvcHlGwb4Jas?##
?@@wbIdvDmMQuiWgBLbMZI2GdqiIgOLGtfKN9wzpY0URC2tzWquBIAISeipwedTTYfRZqZY?##
?@@elDSOqLUoxI3Y6F9IJMCBDgPSYhiSt2P2pbCXksIdab9fwmP1zkQcNaE+XDC9oJQ6+ht?##
?@@b/EAboDm0xFqtmwSJjZJMO4YgqcaOGM5D8RQfSflBPFqH11w2MUNIZesiTzD5yRNmHQa?##
?@@oJanWGDenmwC4ZgdbhJNsUgT1yTqi8Agvqx5kYs4IKUoSaDYTdEAAlVGbJnoB8rTT9s4?##
?@@xdVqHT6TVSw+MIm6j3YTAYploJuKWMeaPojCUSxxg/xBeDUjYrjGfO2usi8QQc1GDRii?##
?@@unaYUbm1Nwi1nvChdfsOocBp7tucwny9FEAB/BgW7qCn5/hC/tqex/Czzool14+Q5pgj?##
?@@F/xwDfb6+Epc/wct5sDeIPBFz9DwLY+T3HTbPPPC6LkKJ2fCsyI7a6eTKrjP1/+MtunG?##
?@@yO6jJuqCjqvKJ3bCbgt6l8SsZXGgpk4KIFy2Ghcc01GxdQBTcxp9hHYGIXmXtekcpYj8?##
?@@QWaSjYg5D13AY1BFp30nMrUikYUV/GAT4ZCNIzesKvcnOml/arIZUwpt/XZrliY4BLUm?##
?@@6hMs43bTBQjREvnLE19gfnKLOklcKeoVYpa2Jzo4YHFHFcxF+jdxjy0mzAAetKNBCo9k?##
?@@q/V5JH/O2+g8RF+Bjnv7CD0S86LAVTDw2SWyioJjiOSda7tiCE9pS85olYvpNoTrkBQu?##
?@@yO6jJjK1NLTGePu6JnF+ryyoxrwLTdPrwKhuf4lj1GQv0rfVTfYWKjHRQACC0liqdHM9?##
?@@QWaSjahDA3tf+RIyY4anbEeSsnRnD6XXb6fa5UyxYu0v/8lvDHNujaVfhzH63S8Zrsxg?##
?@@MuVzX6hdwjh5gRlr5bI2UU1I/c6pNaDI/s8Tu6wqZPhkOODnfEwOkdf5NuSrt0lJxKJ6?##
?@@dzaZMTM3Za3zorWxn7O/qpateC1WOm+7CSgx481LkB23nROJhIqGL1kiPPU2Sv+gl6jQ?##
?@@RH/Llpu2R4pxgmqWGhMeyldNDX9/8uC5VoSigGwc2aY2WHnSwtCwcVq87v5UySNKIBcR?##
?@@ha6kBrm3cMsbmm4TTqcwHhTWNLm48aXuZmEyWqSu/XdGbN8rMCNb2eWfCyLZ2jwGPWp9?##
?@@EtEQUxQwAcZUDsE817Ui0em1sNmGa4XTKgApsAt+xEDmrfYmnwI6PUnyu/2I83sTUugn?##
?@@UwDpw3ykFTNftC2B0OygW4yMgpEQH87Ri5cCMKJkpuj8iYnb+gGphEDNWG3Xy0iZ/raS?##
?@@zBHviLQ/4SIlsS9nuhG5wHhMalGGRrvwzkzWNKwHFLiJofHOqZhDyu4PPjWFwJMjaTg/?##
?@@wbIdvAULI6tVGMtKbTvumA0bnEFT7p3YgI/IFZB7rpZlhZw+ONRgunFibUDjSembYJS8?##
?@@+pxeacJzHN1FPzICGyN8s4W3PDyK4Lq8rKPL8zWzZJkIaHqgtogUxzQ1IjTOMxIJstrn?##
?@@ywjcMJ+1Xy5QDTgVBrh210po00gFZtDmJdo023n/fH7ujcTSJe77WZiTOgHLEJfcVaf3?##
?@@EMDqolYy6/2A/IkXtrKSKy63HS6iAbmKfjNXKz+gkSJuXfSkwxZDpGeScs8g9+KfaOyL?##
?@@/baXcsMd6EM2T9fz1v3a4de5iq66qpd6uJHXoOPfIg0Rh7VdjlHgmsHbUISnKXRc03z8?##
?@@RpDxRrCMjyaOPOtVuGkZf+KskH9JWjD5ss1dDzcN8vysLXeRhOYzKvn9PsmlhayFgzRH?##
?@@+6VxwR3Gwwxp877H4fteotbxQIkKlSMkaAOzA3A720dXiIEFSuGU67TbX4DkbhrsPm11?##
?@@hKaRrSl3Clv6lRz1bMrJAHs9Rc1lNH6BWrsOcTcxyNE1TIgqIAwgTAGjTCXEDs+8Iwu1?##
?@@yfe2fweC9sBbUX1xBGMyNzENX4juGb6w/T8sAVwUCGP8IQmdMIp3MY5PVmJtmq0hm7k0?##
?@@Dq/E8tYMxRX3hdjWfgYQoTXiiVvCrliIpZytx43pDqdAg2UCzAXxRhg4dkxUUtjzWWtT?##
?@@t1xeSPGeayCoERL8G53EY3MWLksBnFwdXSn0v173wELlxom9LHPQyF7f4cJciyaAH7Hi?##
?@@GAWDZUAm5uhbpW7P4XWFYaEA3QGcY21nRY0k7XZwuScVN2Rsqbzj7y/e7FMW6lAhgDgn?##
?@@cQImHg3CzKY6emLdrDvkpqqUCSjSCCvuJdycZdDzacR8ET8FyaWpWKzSIxJ1ZHVCUSy/?##
?@@9noRBzewvPddS7jEHwefI9iVdjVnZLEy1lDoJ90Cawgst80xDFDbvHgEm8dm9XVKwk6O?##
?@@W0WChrV3IBmnHD8T3OOVXTIDo93x05KTs55RCEqqRF+I/l2taZkva2nF8i/fN7GyBflh?##
?@@6AEGMmAC2xk2tFLlU+v9cnfZWZkD23N23ntzF1UXH5hHSxlLGj8IYfY9lcmcGGHrc233?##
?@@MdxgB4f1FUlwRBEdhVEHL8KuexTtVODNdjo3qdmRVbEpH+3Z2pt7ovn4iRhLG3lyKFW7?##
?@@8lfFptNl9AT32Um/mqixGjO1vG9k3sDkKj/hEFJBr3OMQ/jrQUv/iPLD8zSK9UJQT+7y?##
?@@NxDTGR3eIXNLJ9FUWue6hrgHms42ZSJSmE/lP+UZpIXL1GA+C6wPHiq0E4PhLZHUY/RU?##
?@@ZJIuovZYW5nBj2qFUO+gNgZLG0hzsUT5cLagqB7KvX0TlbZVYJ8EL9WiHzwo4TpuN5ei?##
?@@ab2NWwFSmPZzZyTFntpe4FgY8hiJhHCaBJuL335UZR6MMaZdwT9ZJqXGgte22GTJf9NZ?##
?@@6hMs49xuhs8ELX6fLm+ncduYYVWJF/MVE1gofOy+F0P0msl9DiL0YqAWTin2WleC1af/?##
?@@Gx+8b1qeT/D/YQO1sZzeNHIuhc2zelloXi6OyGgtDNgZLzBBQsuc1IqmfOc42IuR1ROS?##
?@@6AEGMq6YNVfV5rHuq4fz2z+BgIvwSe91nua5CzmiWvxLB1XWkxs8uQS/aKw8NozvzXux?##
?@@xdVqHSr21yJ3DhjiQyIYYz3qUGzsflrVmHyLAhjUZYZwgRvqCAZu8GQ8VTC62y5+c/QK?##
?@@fnIemwSSoP1k5pW73kE69pAHOMSGOq9uHQbFeekV2xhm/v2Tdc7/OhJAgXHT/qUyZy+p?##
?@@M+2Gt+12u9qUfXnwvrN8SA2LkpTXn4u0nCj9Z1wWonvYOVQChpm5c7OKrck6OwOXX47l?##
?@@jOoqcC1/RYqhhsueu1sfFgGWVx8ehQHXmPdSb9IzjfE5ViyFJMSAhJfVbLkFTtltwW/V?##
?@@7Sxl7BSPrV4TEYSN0ZKuOjViWuE4sqHaisVBoDeD4p4CKFWwDYLYJX4NylmXkH/isvj3?##
?@@Dq/E8jHZSIJUJNInYeDl8KCzybOBPeBmjI4doYFN7xj8QOh4nGeCZVEElm9Ihj5GJ+XF?##
?@@Z6xnq+F0najScqWEpxqoYvH75ev2zENWdbnFcwL9B1Npm4TaidIG6m1C7xWoamapx8zf?##
?@@9GnrV/YkEGfZ4Yz+N8tplvOI64nanxbxCOk6d8eG+ylq0nzF+3ODqZGt7SyDe0cdRnhH?##
?@@oZ+6sBHWfGAomjN5BFXQOr0xnmYD7fPs3y86XkUIV+9y3HJdVsC7py72HaHe0zLwqRVT?##
?@@fnIem+JCR532PBvSXyeWZVUN9sveijVc6Xm1sExvSkemqZyjpp0ZdCOVQKiSvfMqFHRb?##
?@@u3+rqu/YcO3jFDIB3wY1AHQnpMj550v+7fmbvKh5vt9lOdXYrx8ZJ0Bx+VONE8gDi22O?##
?@@FOM3BEwJAOSlQ/r//QLzXtEI5R1t9l5SDSZbx58xkLwCaq1B/92DI5+TruHod3uGl+ev?##
?@@lTjVjODzh3VyUVPDtMvThkf3o++DSZD4icP1wS1G5szd6aIZ+xBYGE0qHctGWdjsbHR+?##
?@@oqjOCImNgN3KIRFDYte3pFF/tXmpJyw+cUEF7oODoXNANcqwcDIHG9cdpbhKcwQvqjra?##
?@@jwRjeefCzF8Fjn/lBR45o8Mp+BHLbCSMXxWWGDgmiKt0717qYmHIw9h89GaZwX+5/IzI?##
?@@1FaIS5NomTF/FD/E+bjWG5D8ABqEbZioEaCyHFYZlTDW+XrzAyZm6licGhZJLTYYFSmJ?##
?@@Nf6taEQ9sX1UfoE9HSGaZfwq0hNe/xocaocT2GNqBYg56Dzdkg/8ZL/iKowQ6srUB0rO?##
?@@cgs5dwnjOhqZajfpo2BApy0rERGi1/ppvND2dnEw4ktRjIQhnvT/nwRCi0IzcPDsx5j7?##
?@@Y4obSZSxUTIKGRXNbIHDnT5pVTU5w1e97N9Slg01zzlPdKSBBzcGYwg5N5dYGl4PwQMu?##
?@@1FaIS6xouVhD8Wys+YbuQGLYASr1okygLBWw3UNH9b+ArSduQPanLJd3y8h1GlAqjmTq?##
?@@SaoqUB6UJWxSvma3krW9KbRyPDspvlKBjklPhSnjtm0LDxMR/Dq4YtLdPqX3M4+S2ptT?##
?@@BmorL1bAWe5wm7WBqX1k/c2lgg8jtamFH82eohEwssIv21aiS/hFtocHF9/N0grwx1NJ?##
?@@b/EAbli300Za/TIH6oTKk/7OWtucM/i+kEz6BYsdKZEbn7bvUwMu/rDMoC+PoxunYste?##
?@@2HjVrAkFVvFbbGkkRYJ7b7J0V51nR5wdCyugAURdaS2BIpt3rQLTvCeupGAdHdljxCEp?##
?@@gYxYpL/DP6ablVUaXf6PZrLWeQQ52vELrfzr9Fr9gjGu6m7Yi4yrcLyB2tA712yUBzsE?##
?@@AkjfzRDyCwr16N7kvh0JuZ365rRZMpzv4KbOL5h1bwxOSfXmVISuP+5dn59Ne54o9G9y?##
?@@R5kEn5awwy0INtDa54IbpgeBumJsU5UGySWiQZAigByJJ2jOYxjyRCev+/6jItt7FYaY?##
?@@YHDiQLfjL5K+xJ4+SqwQGHEh1YWbIRDSSdcW1Y7kPCGcFm+1w8F4esBmo2OpvYoZ3HfJ?##
?@@GQ6Wvt/I1DkG6xJCXaNR+1Pp0WG4G7mPvjREENVQvAp583O8Cw8ztY7rvYFGYQGjF6Fr?##
?@@WjxvLmIkxgAzejtdr/f8d7SeAdMKZ/+WZRwL7qe+9xeefgEiHLLclKzG6Pr6aRrYzkzN?##
?@@A1DyJnA8qUDjAVVer9HktOLLaM49a+vL/4yd7Fb4ZwJecKBIbcdPbZzFNWfND4lHY+al?##
?@@3JohDpoLCTrXVfCfH/xSRu+zZsInMbeb6FGcr0Z5RSPJZhLUr3K0xkTp1IHc1uFA4dnD?##
?@@OSH5yqRnlEBdZ5HIFvo9AYqCuHMDcTjZLPrmEhe7JPMc4GU4+f6/z5dmVV4XtKASC2OQ?##
?@@9noRB0gWuxsgaLER+KvnX7e9nvz4n5tfn0qxYqzADzD97WXGoXKV/kKM6zHsSH0fFk1Z?##
?@@D7jXSmFoLjCQ+LGP6oRpkjqbcMTmOW3USaeNzqcHfId0JCivBlb2+8JQ58VTLJHWQaVR?##
?@@DJ6eQekmUZlD5l1VlINDIBBwBTTOJDYUHgSjt+IDV4/Ne989QXhnJdBP32a5Vf+7/EID?##
?@@/baXcsSU+37wHrOH5Jjz13uGz1DgR2nDGnNB7kag3SZvE4tU9asAz8+d+A5XJQvGBxFA?##
?@@di2G2ANjV5h0s2hXXqqxufvdPIEmpUcxGNhNbgNQuVPcQu+ZoJi/D2hxBRKjLDKtKllB?##
?@@l0n8PDyG88IEE0eWFuFg+nGEbbrktkZJy7XxyvQfm/8JzvC+IIRmksnMW/Ls5/xkrG89?##
?@@QF1/NFUralz4h3FXNiX/3qL5Uc3CslNzPb0+EzBibgaWbgd/2lgUPMEC6P7owbD4Fm15?##
?@@nX1uT9HKkdO9LHzh2zqU2Pmrp1svfhCvO2gisV7awsH+vIzi0cTbNIWGhwNgkvEkChyR?##
?@@noWBp+8q1U1oUxkkDHOxhHwEaehXUJR1kL1Vu1IZFDjYYNMv4kRvT7BpfpFIveOVrOfW?##
?@@g51+VWi8zOPtxW/wvvwXKyGqsMKeKiwyMUvABl9/PzT6KUaXOYQevhnP4uJNaQ2fxskn?##
?@@5N+60dmHNsq5WxvpgW3uATMXWFhqZ3FDlMSBPvI6X14+bFH/wYphf+ic8pHqywO5IYrw?##
?@@rQag1NjTuHje3bVm7X+UimcwpgNTf33nRhm0sLd1RO1Na+u4oZUT57TKqJr8FQikFj+b?##
?@@7jV5RMyQSZ5Ll+OQInoQ1H7TuD6KE7CPRx/VziZhkxd7D8XKzBfT/MEHuyeTDxEB8DfT?##
?@@12/BVNQC0x+dyaaSvUp5lgwFjLA0yI+LKAFMmjaQZYwLhgR6WUd+G85veYGoso2gQ1NV?##
?@@iMjdDwkztJCKifQmzYxSuBG/fNbl1cAGTACwE8M2Qm52wclXg729tUdAY7CJIH8HMFEd?##
?@@qeRTc+2OrZthrn32kzQP1EVS20m9rIAD3yqid92fw3G6epJozOWDfTZ8bmGBFOjtxtpj?##
?@@OikMIkFS4JYtmUepF4CMZ2+BtdREbHJNeq2F1hgAbowoxRflV2E9cpooc3Ig+Gc3MAIh?##
?@@82DY/i7/8UaipVNqzj4ojcQGTs17k9fIflhK+tZJRZoqZP66OmEil2vCPWcm7do2DGHg?##
?@@FOM3BKtk8uYKzGIbDKkpTaviBRopPBwVf0Qe0cm9cYDy3d64s89gqdnt6Xi5EZiOHJFz?##
?@@0TxPQgLbtcfKqCBEXBe1HbiniW4q2KUeR7SoO+4sdu+yhW8lKvmnfWXBETmDopKs6LBR?##
?@@elDSOq6nYTh5q3tLkUi60pLrW5jbrSBiZoXBqYoGTeq082RnYFdfWzjtSrhHkYW8bWgT?##
?@@u3+rqn2Lmu4JE9nRd8k4EshkJqpC7R3bapAve7iasbx3JaP1iXfPy16RhEsg6a+f0Sx/?##
?@@KI+06x/deUEoiQx8ZwKnOJf7zYj/dw7Zg6vOdZBgo0r9w0XCCIJhY5HetRSCf11XZKoz?##
?@@fWkLQ/9IKcUv+0i2fv0dBgsgViqeOIOnZl7bsjDu7M7MJp83gY8MzuZ4F1L/dhbLGWNQ?##
?@@xt19dq/1Nw3ZesMGd7KUFScxFWWNXSAKXdjDoiJo7Lzcm1WLaRs1F7MFNxYf/0H8F70d?##
?@@A1DyJvglr3+oNEKlhq8gdzQRboSX5BRRmSvOBGxJ194SxcKuEHDPjkmVXFy+WoTDopMz?##
?@@iMjdD94WgthCu6Rd0OqUM6Hd9RdOZymgJ9luklOmTNN4CiYawD7vTOMhDj1ladQklXog?##
?@@lTjVjHAy9L+OoEsmE9XM6ZP8dJZQb+BZYon8dQmX/7dCIakkjabDTMwXrvJEA3X8XrwS?##
?@@wrswFBKNge6oKfXokW2UJOxoBQ5zBC1g1CukAZuCb6O3mWL9eM6UD4QbAO9gYC8l31LA?##
?@@X2fO6FsB37DStMO6Yz7VgBPKbNDMRd8vdc/rv3WvPtc9upAFrhnZ4Go4ZXVLS2jDWGNZ?##
?@@tEIlP03q0pB6z3LGHmGESvzhr+NDZMdyDIIo+upqdHJMi8gk4JqRmdq0qiO6wcbydLUC?##
?@@VREQdCrNOP8RZnqbXUiUe4paXIm5MqTfGxZ91k2BzW9clXKqqpdnfrtCAkoeu+/K0RSw?##
?@@xt19dnYDMsA+Sz8Fy/i59OFvBi4zhUMf+uwRke3mN/+DCaZtPNXeDAEmeDQzS2E+7ToC?##
?@@5/nz2r+gER3Z8zqMsWi89a8IGNMcqW6Nwk8vGO/vluW0cWbjCXTKj0V2j7t3HSfW1PFJ?##
?@@gINETIOlUh43Vv4ttSSo6hiOwvwrdqct+/bwhBBuPEixNT5iLNXK4sckXIHVZCs3b9GW?##
?@@5ejNKeltVKhmoEavmD2/WA8hVx8EFXzzwsIo7QSVinye4PDHp36wq0SlpaaAYcFrlyV9?##
?@@VhojzBhRgHV7eLR1wdDmKrNDjatDi0Ivus0i0FuoVXRZYK4rO0A64xCB2MK7y82oT0bh?##
?@@B3M+h6Z3O4elUZwc4IX0bn6p1nyLC+3ur0pt+jHAnqXOGjCwFjq4iO6Rgt1vU3Qaek15?##
?@@5N+60eI/mbgWXKw8S6U7aNe6Bl/lJQF755tOU6hgUTOFGARRrSEUKscdqIXLleNKMbQE?##
?@@xdVqHWxR0xkO2vZngFgZQeQYvGZik1CxHTgWTU1gYZm3+hVgBC0W/tHV2FZRr7GrSiwG?##
?@@rg+zLRAzTwaKp76ZVlC7ezFdr/dzMaMj36wYFVsBGsRk/m8BQfTv48qcPTemft9Tu9CS?##
?@@6xs/O7o3PIraPzAG+Xa63AXS25YNobnPuOkEYeh0wpyv9aPZ0BMhe5wGRAOMD2fsS1lZ?##
?@@+Is3uCGQDvqJr92Ad4EuCv8JUgq01ncaR8ciJ//Oezn6KxlTOgG27450GO0Cs8U3G+0p?##
?@@AT/MdQ+sRHahQHn1E4dbVDT0AodbYQHlrUlAGbnOQBMM+2FDyXZ1+Fms3R5rc9mvkubA?##
?@@WjxvLmpvmqqVFFkDrFRaNlkSAJMIVSC410P1hTKRwn8ZkFK9elInHdTDfkYoZzYv0WWU?##
?@@37RaF6jTolOXFuWCiWyS9nfdl86KgVySxWMfb1MVcbSzJ+nqZMI/3QLNO1tae7mrlPZG?##
?@@xMxXxRqpuDn/RVRiOk+4cm/ZejE6F3zV1v38LYAusoUm2yiHgyklxt0HeJ9iQIOzS9KE?##
?@@vZDRWhydQuIjaIaS98llUaVpLAk5j2myd4ZhCJ+PIApT+nZIsXL6QvQUMDsBov/e5p/k?##
?@@di2G2E+mLfVwM5CWMZUyzJtv+40KHM0qBUns6zXo0eHNIkYxoleW06VO/dHb6Clv0qC9?##
?@@H0EJ0AxoySYyNTeRx+/mrJdGjYaDeWSyS4RDZLGhh9tU6xNEox82EUDv/bgrGwJMJLgT?##
?@@2HjVrOFoZOGr++c8q342UmEGtlDcczR9lnpmzYRAcwyR2/z1/jsHnM6ju12qm+NoWwR9?##
?@@SaoqUANe1v/i0crfcqvb10cPtMsE/Lj1yXFLthqS32dNlnZ779P4JgWOlnb4L05/4m+o?##
?@@1meu/BHc+l4U0CQSgRPhvsszQipFP03Ct0NaABQ/Ij4sxNPnBc+EDlWTMlcMU6bWVlpc?##
?@@00118z1lus++9Bqtvkmu6cOh15hELkNxDhlwYEvfQh5NMBzSHbGywCibyVq9A2vOFoGm?##
?@@HCfPx8ugJXxainyE4F3PBLQeciOXkJxo3UuISi6dz40rPIzcM2g3wdWypylZaj34Rtz5?##
?@@Ecn9+z5FTgrCa5r5M6DX2YwKw78wbL3qwD0XM5fnBvBv2BJ9Py6Kh2VZX8kdI0p9fEux?##
?@@cgs5d18x3gsxNayoIm2oRMPD5q4FORHPtRNlSR/kxH2nihGV0nNB20p8dCH0ymP/67k/?##
?@@e1jlkrp64zUxQOFXdBXibgI86Vogn/t29087W1CaOJgR91Uk6VIdK5wP+RfnKwzD0D7w?##
?@@lC/CM/DRvYgxG+votgNsiFVZdpKGR7XGLvtBtixFV3Uf5c2fldQugni+qIZ+ecoqw/eu?##
?@@3aM0Zvsj/dwhts/YhlIhWnHqrpU4fOcAWgogifpBl445wRfY4QK2xykz79HxwvA1mP8q?##
?@@YoEI8fuVTQ1g9YAM1D1Tr9qTc33zvPmnA8EnS2R7HkFgpNOTr9H9T9WUIixE7Fnk136f?##
?@@h7/Ktp1i6KWJu4ttCwmI37u3GBrEwBXFHUGdJ2XBqU9+Hxo7creVjYviAtmblaGVJUpM?##
?@@PDsy08OeuXRq1wmVXitR+jPBQ6myGL8URZQlvLoKA/PobplFDVp9fFlyFICcmJZ2/9zA?##
?@@wbIdvF473jbAw0NYDyl6F7coWIfUAOxGPuyS/j/ajrflxvX68drI6s2GIB1xwgkrwb9i?##
?@@rg+zLRyG53RKBY3IwVcrKWTqIxTT3EDQSkWSWtKMU+m9VCUnvsNeAH7Db7Dr5d5/4WYu?##
?@@UwDpw05wvb/QXX62Y0+C0leBvqTp5iyijsatTaI69yrXEanVo6mQ/rpYkgh1uv25rYH3?##
?@@XE6V37vstTuXY03vazJSJPJUMyoVvO+Q1N2iK+3tbp+E87nauQ0jSop3hYliBkbUAAa/?##
?@@lTjVjGNfg6o0mH/3IYGNS+Uns3UfS8nfS4CMwyvth0AJ0uYjOp8XIkujPK2QHghJV0GF?##
?@@5vDggjOhS6oYXpr/RyPPmG9ivo1suYKhtXDxFajiM7vWbUEgIr5SzYNVFSqt5amxWUim?##
?@@kyev2/Oj8lRT3OvW5Jmq+1NoXvPyzbXaIBA9bXv9oDtcjQBZ8EXauXI1a6ugC/8bs2Y8?##
?@@ADe5HUWD/G9d2Rc0lLKuU/dlA4NT/w4fkOnXzrzw6Xbph0w7FVla6/yubNii68fYlYsN?##
?@@gYxYpNcUyzRadq3Y53OWlbh5xRHYSVrtBgsmgPPpDl35FAl9k4LQYBluRTXwk9eHjQE9?##
?@@VhojzH9bZ+yCrWoVXQYJcMHEGBG5tIlR6XglljolO/Nn3+BLffCVkgMpA3S+saAJ53Cj?##
?@@szoS59tIsLiLB2/UmEz+Lq/CnYm1jN9XowL3YBDoKvSVz2ZV3J2mtXQIBzT8Z7RzlR/B?##