* C:\Users\Jonas\OneDrive\KTH\åk5\MF2063_Inbyggda_system_projektkurs\MF2063-ESS-NW-CAR\Power Schematics\boost step up converter\MIC2253_test.sxsch
.print  ALL
.options PSP_NPT=10001 POP_ITRMAX=20 POP_OUTPUT_CYCLES=5 SNAPSHOT_INTVL=0 SNAPSHOT_NPT=11
+ NEW_ANALYSIS MIN_AVG_TOPOLOGY_DUR=1a AVG_TOPOLOGY_DUR_MEASUREMENT_WINDOW=128
.tran 5m 0
X$C1 10 0 WEBSIM_ECAP1$1
X$C2 16 0 WEBSIM_CAP$2
X$C3 12 0 WEBSIM_ECAP1$3
X$C4 6 13 WEBSIM_CAP$4
X$C6 14 0 WEBSIM_CAP$5
X$D1 4 5 SCHOTTKY_DIODE_SPICE_V3$6
V$IPROBE1 4 9 0.0
.PRINT I(V$IPROBE1)
.GRAPH IPROBE1#P axisType="grid" axisName="3" persistence=-1 graphName="Switching"
+ curveLabel="ISW" analysis="tran|pop" order="3" xLog="auto" yLog="lin"  nowarn=true
+ disabled=false 
V$IPROBE2 2 8 0.0
.PRINT I(V$IPROBE2)
.GRAPH IPROBE2#P axisType="auto" persistence=-1 graphName="INPUT" curveLabel="IVIN"
+ analysis="tran|pop" xLog="auto" yLog="lin"  nowarn=true disabled=false 
V$IPROBE3 5 6 0.0
.PRINT I(V$IPROBE3)
.GRAPH IPROBE3#P axisType="grid" axisName="2" persistence=-1 graphName="Switching"
+ curveLabel="ID" analysis="tran|pop" order="2" xLog="auto" yLog="lin"  nowarn=true
+ disabled=false 
V$IPROBE4 6 10 0.0
.PRINT I(V$IPROBE4)
.GRAPH IPROBE4#P axisType="grid" axisName="5" persistence=-1 graphName="Switching"
+ curveLabel="ICOUT" analysis="tran|pop" order="5" xLog="auto" yLog="lin"  nowarn=true
+ disabled=false 
V$IPROBE5 6 7 0.0
.PRINT I(V$IPROBE5)
.GRAPH IPROBE5#P axisType="auto" persistence=-1 graphName="Output" curveLabel="ILOAD"
+ analysis="tran|pop" xLog="auto" yLog="lin"  nowarn=true disabled=false 
V$IPROBE6 2 12 0.0
.PRINT I(V$IPROBE6)
.GRAPH IPROBE6#P axisType="auto" persistence=-1 graphName="Switching" curveLabel="ICIN"
+ analysis="tran|pop" xLog="auto" yLog="lin"  nowarn=true disabled=false 
V$IPROBE7 2 3 0.0
.PRINT I(V$IPROBE7)
.GRAPH IPROBE7#P axisType="grid" axisName="1" persistence=-1 graphName="Switching"
+ curveLabel="IL" analysis="tran|pop" order="1" xLog="auto" yLog="lin"  nowarn=true
+ disabled=false 
X$L1 3 4 WEBSIM_IND1$7
.PRINT V(15)
.GRAPH :15 axisType="grid" axisName="4" persistence=-1 graphName="Input" curveLabel="COMP"
+ analysis="tran|pop" order="4" xLog="auto" yLog="auto"  nowarn=true disabled=false
+ 
.PRINT V(13)
.GRAPH :13 axisType="grid" axisName="3" persistence=-1 graphName="Input" curveLabel="FB"
+ analysis="tran|pop" order="3" xLog="auto" yLog="auto"  nowarn=true disabled=false
+ 
.PRINT V(11)
.GRAPH :11 axisType="grid" axisName="6" persistence=-1 graphName="Input" curveLabel="OVP"
+ analysis="tran|pop" order="6" xLog="auto" yLog="auto"  nowarn=true disabled=false
+ 
.PRINT V(9)
.GRAPH :9 axisType="grid" axisName="4" persistence=-1 graphName="Switching" curveLabel="SW"
+ analysis="tran|pop" order="4" xLog="auto" yLog="auto"  nowarn=true disabled=false
+ 
.PRINT V(2)
.GRAPH :2 axisType="grid" axisName="2" persistence=-1 graphName="Input" curveLabel="EN"
+ analysis="tran|pop" order="2" xLog="auto" yLog="auto"  nowarn=true disabled=false
+ 
.PRINT V(14)
.GRAPH :14 axisType="grid" axisName="5" persistence=-1 graphName="Input" curveLabel="SS"
+ analysis="tran|pop" order="5" xLog="auto" yLog="auto"  nowarn=true disabled=false
+ 
.PRINT V(7)
.GRAPH :7 axisType="grid" axisName="1" persistence=-1 graphName="Output" curveLabel="VOUT"
+ analysis="tran|pop" order="1" xLog="auto" yLog="auto"  nowarn=true disabled=false
+ 
.PRINT V(2)
.GRAPH :2 axisType="grid" axisName="1" persistence=-1 graphName="Input" curveLabel="VIN"
+ analysis="tran|pop" order="1" xLog="auto" yLog="auto"  nowarn=true disabled=false
+ 
R1 6 13 62k
R2 13 0 10k
R3 7 0 10
R4 15 16 620
R5 5 11 10k
R6 11 0 10k
X$U1 8 9 11 13 15 0 0 14 2 MIC2253
V1 2 0 5
?@@--START ENCRYPTION: "MIC2253"
?@@tlQy7d7ZKun3HE+jxMynfPbtWRb1rjanwaiFWLknQBR4Xy8SUKSOrA2GDAKUCx9SQftY?##
?@@kyeW15nget7ub3gILmALwyREf7xTEUcdR98lnNDPb6TSJOPJVidNnQn3kyNi0g4n82Tf?##
?@@OBjHb8aN1LMPFEOLA1MWEaH7+H/z7y6F6b0tgXOEUekj8rml/n2jD863vUV6pH2GXA50?##
?@@oZ+6sBiCxzA5GNiYtR9rw1e+2NQM4B1cEC6Mf0CVesYTf2cV7nVG8xuOVAf02pnNi8iI?##
?@@unaYUaFo5ZDhO20i9umb+aFtI+4mL6qD2ofKLtYht64gci5JzIY0OEY2mZu797iIKLL4?##
?@@94IkYGsCKDkzte0oaHUs0HMcCffPPjVeEc9SCeYZhXNfWhFu/QUdYYm2UIfUUOvB9ykR?##
?@@wKoKZDpV5zS1teWcOvGG6q4xVCQhAXlz05H6oekZkNnoeoCihJnODASGd8Tf6665YwWZ?##
?@@/baXcgYCABtggvbeN297t17jU1almSPMAHfMwn4wzGDTAsKltO2v6j7EUalb3d0vyRPL?##
?@@jvxQIX9Jz+F2NtuiLbRC4nVUugGCuNUgggv9VkLtjaWL+yMKCKn5aRA8N5gPEK150AaL?##
?@@n46U/z5AJu4I7t9sLw2pf6lONq0v8MZwbt7AoR0yijQCEyXlKX7N5mdGsLltxhdjxahf?##
?@@vIe+AvV2mu1U8loDJXdMytC05Wj8Q2cGKNRu5pak7h0xTGQpPO85+vC5R14Ei9CwdmtE?##
?@@idHwZ+kqexKgqaPfLyWaoruGA7qsTAm53ahg6w//cpAmq8qDYZDor75gFCq5B28l2546?##
?@@noWBpx5Bn+zRLVQZSKSXsV1HNkFYaxATDgSNBqzNa0HIJVS8XOQn0cm4Zo4fXYLXa1mI?##
?@@g51+VaUWHR5fcYN7RYeJcYlP6/8gX84Vm6wUfCT+i+bZbKA+JQrnFyOKvtBVBIbQ9rWU?##
?@@rP6MfF3M+6mrEn9TiYFsgUErBoLVAk6qPtSMY1aaZgUPprOOtqaHbft0j0ZUojCQ3Sv/?##
?@@SaoqUNlwFQcJQhV8EWqOGt/alVGzPST9fWLTVwZr92xgplTSDFCbyrjiFDIcwTq0XlPI?##
?@@FvRdtZFvLd3iORWRhM5pfrc9N5yrDR+6UqMcrpGFq6vAUPvoRyCuqGZvlusaO5+K9lkE?##
?@@u3+rqru45SRh0tAcIvG7ifkoYr5a5HhLGXx42Ov2OEPJaVPaxKeIjU7QG+jowX+SjsSW?##
?@@ADe5HTZC9jLg9Ejxk8X561IB/OsWNcoXD+AHveI7lGfmaZHaBWExGiosOeuq9/zbwjkb?##
?@@OSH5yixbCaGKAM7W/Xco7rIVKHsdJFEzI9VuVNoH+0PNNJujRuNV8LU9luO+1Q4KQlKc?##
?@@Qm6l5SgT1GtLvBoigKfukuxMiVUh2aVSRh9clKFds5hvieam68D7RtKzUM9Ie71DHgdN?##
?@@szoS5/HEop/D1laO2DZu70jl1olo0Z9Qqi2+xV6gzeRMnOUneGyMaMCTLGkEOMchPx5n?##
?@@FOM3BF04xQE+G1wT3PgsygGPpxS4xe2N/7cEhcXxDpn6zvFlr1PC2Jpy3N6GizW9Ambq?##
?@@oZ+6sFElXFrVSqmT4ExTW1mam0sLnnH3DWylOduQCvHl6GJtRiCalAlRE7uBXyVCCOSM?##
?@@Xl+7j6j8CwhPwABOgZ2eQeOmN6Z+xmyB4Lvhn8wHkPvjBX0QhCFoXwEFfgVjp5/OCmBn?##
?@@M+2Gt5QADjNddAJpZ01FS5flv5gZkhv2frnEhky9nZ0zs7YBYA3TqWKKDJ0NjF1UrpBc?##
?@@ADe5HekKv8ry9L8ZwgArSNaEoyqaXOYSLfs5aqysIkJRtGNehUmkvLdGxZaGuTJ1p+De?##
?@@8U+yTpGYRD1mrtb1jlIvAtF2ck3tvXQGedA3oBT35CBm+W8cuKiAPpK8KB/DDETb1Fc1?##
?@@kh6cg3Y1lEpJKy0Ge5Pd8k8KhkUQsg0dLbHXFP65DtUUFMXxcnj8Vbw4ci2dbLXeYJ+1?##
?@@h7/KtmIF7UHlwtm1bEd7w9N1xcraN3JeDt9T4A8i8Ro03vocKH/Grin2PV1EdQ3sJIJp?##
?@@aLV6AzDRkxz0wFd+EN5nhoYuVdFUDCkd7/4A325s2RAPXdxR1wAx0ZDEZ5QuDNn7SCIw?##
?@@IVIvgfGIWkxrOlhL2qHUR20K2F1693XMcSs2ExDoffAYIgwymp/D0wGqrk+3ycPfQU5o?##
?@@Xl+7j7XLuebWZgXqIuiVmUNKGfpAHoVuro8SmctqZZQsts8e7gtcNfX+DHPcHdGpcZ0w?##
?@@szoS5x3+QGPyokNQR10lJSAynT0RjL4C1DjYO0vNNIMGooPBOJkkOYxkcp05113tDyuZ?##
?@@QF1/NFfBvFIJKhW5ifeifd56al3wz5bqGjn04Au3E8crH7AI23X9TxgZXuC5hsCT8AoN?##
?@@SaoqUIII2FYTymkAyhQcn+5RuueknrT8Waibj7lqVWmwtCMIduor0w+4RRixT9Kb/Ccw?##
?@@lkDo5O936ZEs5VNAd80mw+mWxpGMnRa6KT+MsuCM0aQpEOKGcJol4P5hWmEU0yhf+2f6?##
?@@F/xwDTy/LCrrsoaO8I9d1t3ScJ5FgcBntCb7EveGv1TADIWfj7br4qqYlvWk+Gf1DORw?##
?@@DJ6eQX+Q7ZLQXnP3XUPB+9X8D0IrrRzje1dohcYCWo/XvuPkWVVK6zfXh2iDSCehG8qj?##
?@@cQImHi9fMY+uhvsI7hIK/oKLAA0nGfpYo+bqewpJBaPjtWHtpq+Z6W386YDgr4jpER1t?##
?@@ziIWOdO/2bokvBCOubb11Wnn1dYlk8c3zCDRcWvM0kKwqCn9gzsc3PTFS9aE6tkcDvQ3?##
?@@M+2Gt0nL/xRW32mhku3yRFqlFjEOM9LXLBbko7dVmt7KZ6vd6Sy8XPpzyWaXxGO70cfT?##
?@@NPaZEMCTu52B0q07vah3n5P7M27+QHld7QISDetpnidlsBLG4i5SbhzRRnoahv8v4tqN?##
?@@KZfHRMpIyLRga/FIh4YtgBy9GEoarlygBAhJpA4dIvUaR3sYRm6cJyWnhxccdvx/qc9H?##
?@@gpRr/WU2GUXpOgwAdzeRk6zDggphwzyOfvlgjj09CZZRbC/T3jByvzMWCubpOLAU/NQg?##
?@@25IOtcq9tAbdou43G9OcXh/fyitI2y/DMXkKzBz+cmSx4HhHNnwfqps4QD5+9+YGuLQ+?##
?@@UOawuj3G7nwj8PnDjDwQPH+x3o4NUFicnEbStI02REZCdmA8Ur2yKp9dc5KrNZtbSipb?##
?@@vZDRWmPjk+x4JmpXX/mnIi2udAkuxb27GIiRu7X8oZCLidtfj4spq3InH0sWHk1qvjRY?##
?@@VhojzDJ8uoUYBEnsqx/UVdm1UifsBkKgNDonm94fRUgo9Ja4CIcoOzfdHDAFnGLYHgQQ?##
?@@a8+0DBqxOPYr+ZI1K/rIMaXGSUCb+tedL2TVOJ0yhN+3TT3n48ByR2Pwo8KsnjkIXuT0?##
?@@DJ6eQUBFgKE7UIE1wocHEk1BprFEmhrD0D9iLholiG7w/2bDrUs6GpFvHs6seCm4/giJ?##
?@@ab2NW+VzfkUwq0yYeW06ZVr4GZGSf8l/OAfNzzluusenaZjdiElUhq5sW/KBan1ve8dM?##
?@@PkxYg/PtjHp81grhOFnAQTx5JuKO8AcdRn1/4/1GL/NhHn4ecGAnIfO1ZhYPbwPEmCx1?##
?@@l0n8PFOmwJYDv9DBoWaDa4A7WybGtwuwe7FwsiDtqJrb5ny2gE+9V8uWZXZSGFaJ07RJ?##
?@@2HjVrDucvkxR/bRJRwap+rNpIpM5+0I2Wu70Xudr2LOQXMH9Iszit4hqOlUC5gQgK+ip?##
?@@8U+yTney/xehK1DC9ygAv+IXwKlPG7rBgDDAeMbtxBL495MH5xrQ3/Er9k8F3/i2kFmW?##
?@@IltC2UnlTl/swVZigIUqyBFfPAgX2qxEOmr1kbtrY2v+CSqroW77sj54HFUqGDA7vj8B?##
?@@Z6xnq2hSIeEGm+OjeW4Yw0qHrKJIOxIWfDKPnfUyEM/DM1IPTDG6lxEmcU5torULlV8U?##
?@@SKIX99MgszvWncMqKT8y+GpZRn+VKk1m30DWJs0AiA1wHiUG0iph97YcN3KD1qzcnw8+?##
?@@1V6bo33Mdl+TKRWSSJaT2S3xLUagarnlRx81omfhXkeUq9G0dFLHtDzVZqghDXb7ki7v?##
?@@oqjOCGjG2NAeuiCAwzt4EvK9I1NHWbU5of1zt2etRuN3VUsELlgnivAe4uCc6bjnxFSa?##
?@@a8+0DK4IEacPu0cgtqABphfLfPckmIay5klStJY2VH3wZ/kNdZgxwjn3abSJOXM1BwTH?##
?@@2HjVrFGumXtPlAyu1lDQn5oRZKTc0nHqJoKF3vMRUwLfHW1B8Ek794aZPmosnFCt0oOR?##
?@@Tc13sdGHLBlXhqFhcIHrUOSbVClW5JmJzQ/Mv6/pOQ6LzZvzfmT0WoFfWiKUfwKqgBIA?##
?@@gpRr/fAn9iLcKKp/boQ9JgJTKvVrBw/CjsXcnMIvEjA60z5p2AeiU/5VdQHiEKcsBRkR?##
?@@7z6Mnb1uj9LGq+tujPi4aGv0Wjl0PEqEMtLw6zRgL7eOO+QdSHiWi83u9q2SU3WYlv0L?##
?@@kA120ph7YCB3z2U6PL4lWFN9Utxs0b15HxLqec+adkJXaokEf/f9mW156XaS6F7unq8q?##
?@@7Sxl7FiLxVtnE4U7J9e3u/lQfNjj4ZeIx5eqX7sCiVNa4Bsc/ZBfJvUMHiHwd/YzvQ8H?##
?@@3qtHvy/zo5vfUQieW9LHsHP0R7PA4tgW2/LDw9OOBRduqHrwoNiT3gf9hHcTn8PNhc7u?##
?@@ywjcMFypAn86Ijg/pHWAeXuYu9Xcqs9/Cx0fDxga74kxaoLYIQFun5Dm4L8TMpjan2Lr?##
?@@nHRb9ilWr1FK9ou4sdUuCtZqOM8vPZJnPgJKtKqIp0Ql7d+I96oHJF9/xGcqBOIQ81UB?##
?@@MdxgBy5M00jtsSxnVlKFViA8O7fyAfsqWocVGQoNxG0XxNICnk7J5t1eLu7SBdlo7aN+?##
?@@7jV5RHxkW4wIjUa9BeJhBEaSGw7hgnRbo3p5odU4DycDLqxt8chU1nLARabbYwIk1A/W?##
?@@7z6MnRDkTah9kGoPpZuG91F/R/KskEadxSrKmKx9zrh8hhPWEdutHhYWYnBwa+dKTn8K?##
?@@SKIX92yYxwx/FN/Yh3RcZXhxSzfjqjDkIpZ+iSP4f8qIXnqtCFsJ0G0Ifor6VKSqmP6G?##
?@@WTRc1e7D//bNQ1CiXpECg2NkaHKzbIQ/3p5fHqXxhUMnKWWePESPEGlRIkkzZ4E7+h11?##
?@@quxmyx0BPCmMhDjcvqQIUbhUk/XvuoQY8S45xzRzRPPSWSEaL571YAucbvXHIOuaQcmv?##
?@@rxfGhVsJhba9VTfwuY4CoagK2a5ZR4K2Qug1zBJWd4csunSj5xcwrdtAF6LZbgnjmBBR?##
?@@NPaZEKg6sMVvhvyQihNuEwH1fRLWk9342w9Qu8FvoG0O6sAuUqgne/K4agcN/4An5Jm7?##
?@@vZDRWsgQVKkk0EhSLdw3m1zHuRethC73FPhGAUgxIPxDylef0EfkLk1r+sJcfaMqnlxU?##
?@@KqDbnNLb2X9ZPEncHrqamG4aFgM8th8NgXKt6x3ApvMkfIVcP9BnZgPqGxvCPk1mAcIK?##
?@@p9MtwpjHRDs368L/aC1Wq84twZ7mHfTP5Y31h9zDrKXt8Mt2sjDglH9LRdIKzA9bZTm/?##
?@@JGxoisZoBGdi1wybYEBbf2DcMKD1H9wbgFbV2fq+TqYm1pPXiYxsTr44hTcdyixW0GoW?##
?@@4cWAyATEhrS2JFUnTzEPzOoKuzH9wYJlkT3kJs+3JzcO3kCsNVsnoqGiPJlvkRYmaq8D?##
?@@di2G2BJthMI1aCbn04GJ33X4CdvQSnTCu/35SuX0rQUmEPFrp6RJKQ/ncNAYCoyV0bYn?##
?@@a8+0DPDZLDIRjKCWAkcyUmYNTZ8grqOl/LFDwJimJQ6iYTBcPkOsiORto12xjnyXS0/b?##
?@@mFIPlW64Ejsly0K46UeYcoH5fGEfwE3ki3JVWxnjUdqUGK6qG/yWBL24w54DEMbtp46G?##
?@@ZZtB+j+y9Nw1eowsf3EtvQ9DNGntuiaLjllEgBmxiqM7mqpmlO29HTrivLYIDB1KqOaV?##
?@@unaYUbOe2TjK3xpTfbnjvzfX6c+YhhTr9779l61LFmZ++wzeUMWebV+hAKOPhqj8SQE/?##
?@@dzaZMSbmD/qVjuinoEo5HElc4KVrFHBLklaGom4oso/VeLVoakOHzHArtNp4FNApvhXb?##
?@@ZJIuoqN/tcB1yVsnHtCHsxRu6eiQgdp4RFS81BTR/d6sUqLe6qPDmI0cjbjsbX9YxAuW?##
?@@cQImHkImFtLQ5KXvG4rkqfb8ftfe9zrfEvnKS4svL6d1A8m10o7JXHWkMkn37URUsU5A?##
?@@Qm6l5eWq3YeZxqMqS17fKKyWe8oaGHywfMwbawVui6Y44JhAUqceXGQSI6z2IF/YtWnw?##
?@@b/EAbliC5Lrpyc0JMSBtPO3N58sBZtPcA1c0TKeG0b1e+QT5p6uweg/kUBQqU/hbwjvy?##
?@@HCfPx7OvRUqPdaXddgayW+euulfpCSIVa8c1PdWnICAKVLjp7dO+9BthsEBc+x3mFKOW?##
?@@ha6kBhrJPuFe/pIUxh8ok2MgnzlwVObU3YM/dEzNDR5ocCyaOJDA9cbis5YjfxjWU5l2?##
?@@EtEQU5qirdQ51S4zzvmCFxwnwFrwtJugfGrEwFyPFuOj3lfo0RNcRkgNRni5dR3ZIRga?##
?@@49aneFdbLh2jRVyuoCGo6NIbj5ETImWlULCIF0acG7vwEnPB2WXThMYfCLJUGHky7JuQ?##
?@@oJanWBpJ9yc1aiFPQKzf7BBSVeRQ9WjOiaKdwPhVRBVQoIC/ICg7KA8HjPMdsy3CDNV+?##
?@@Ecn9+/W00vg/3lxROMBtmwkWFU1XEH8oVdw7GC9ZYvWIs/FkPf2edUCNHX3zQUc6LK8m?##
?@@Jn2OOxU5U835aR+Q96ON6npjabRElSWTdqpAeYtrREDv6MRZQzivJrlGaUKPEHJmCMPX?##
?@@u3+rqpOLQejGkQcd5xngl4/uPiTCq+thQUhXuYXe47QT2WNFydwAmsc4dHcy2oU4cgaA?##
?@@MNNNrutGzkOtP/bRbJuZMvNSQnXfAn0ad8q44GWJW/NCFIGGWavsRq1PajWx5YtmaX58?##
?@@DaaxmRoGKxZnwQPra0LWTvP/PqJ4OsbOUOs4Zwr8jdwJOttc+XTwvZft9ZOtf6Xv6wH1?##
?@@YoEI8UUWdJKrFV32ZJvjNWKcmCQ2b8U1C0xkujGDiXkMfqqsS2tj07dD967B7qykZPa5?##
?@@X2fO6DgFiH81nYurGFTmQY6DuTAG+j5MjMmceLkoE4P+jHprXdWfuN0nFHYifvcdQa53?##
?@@wKoKZLPwvYjAsp7q2zHI6X6pCsDOuLpU6n0VCHMSn+QnGBfSisKATM+WAbUiEbns8aRx?##
?@@9XH+r+gEOp5r/l1m8GTUXHN7S3RS/47CWdd/U1VidAFDkPud13fXYjpBwonASe62LXko?##
?@@mmM1RfaEysZU7TFOx5rNsLasWGW3rkoF6Mrw3JPSlm3tWTFJ1bov9UDM68WgGFy+XZ97?##
?@@Z6xnq1ECGe+exXXgbUZHwrPinmpqop1Fd5OgL60z8T2CjFmetxAYIZjWTGAOL8JgdRFr?##
?@@nHRb9juenXINaqfBf7EsXWW1pPVgkFhV+/T9r3EmGlinrp20neKMUr0VLrAcD7d7i0jZ?##
?@@beDavS4XxegIMq4xd78We3REI5k58oPMeNtkFY/ec4QoFrGA0l8Wky2Vldq3FICvSWGM?##
?@@xt19dvwfjjruc+PVNIB2RRFDuKRBEL67VnQYz1Q6VIeDBEOa4x67RwJc0GD7oU6h/Jvt?##
?@@Gx+8b0qcDS/h7l1J7H+F7gr0vJ6Y/sWZ8Ci/eHMAUhDHF9Hv2ETOXq75+FkhJDluRMcz?##
?@@nHRb9m6x8TAOutALxntOOrjzFq67b8MlWyzPL0TjG4dELd9s2I/Mr+x9y6BhQYXFfj3e?##
?@@BWIY1jX6xor/L+je7eT1L5g7MI0hUldVxB1HFoZu4oBj92swmiUhU5SJ6aP6i6X0PvW8?##
?@@/r+qyn62H+7hufOhe0bsgV1fWSR3Z1TqPMgBSW7ZVdZ9JUn5Q2RFhm8sftzN7sO6k1ta?##
?@@T96dYk3X5tIGV+SVyy851Y5OD+hCYZCbKDKSZxAuyGXjD8kxvD4Co4g+dB3nehpHPPhm?##
?@@6AEGMqqcaqxDQXNiA13zDZBJE20kpLzem6V0l66nYG2AvxrDkeFuRVdSVw2c1JyJVhK3?##
?@@CYRlOCyu7zxytxtRNTVkc1fb/NksCmrgmvES/ds2P+xwv7uty/nJkCNlw/uHq7qfAB8p?##
?@@SrM+qNKPuPlv9HZIQ6tvafH1xKkAS3L9ibMhc9qNGXALJX0rwMT77wBdN2sKHuUd1+C5?##
?@@l0n8PB0qiOSY7+ojErgct/Q5zqm1KSoZUYHb5rRxSsImxJdChyaXw/Wgqh8fGpAdV1Pm?##
?@@ADe5HfMxWuHneYv63NTFCRxlbuLwfgPJFkSZUItMDIpf1fohw4i4cmSQHbMMJw7GYuFS?##
?@@tUs4lxxxOOGMhu+u2JCglezmm2DK4DxOsNalHzf2+2GuHVDXxxUoSQmhFuJvzixSY1FR?##
?@@1meu/AVynlcLWieUzjALwr2tO18NVHE6cfZfH5oJLLXDyGBdxVQS3wSVJl0aDmypMV2+?##
?@@C5WL6W7vng/NHpenEEgZcDpK/ZsiwAp9giuriwCj0XmNlzx5PV4aNQf3vmcO3O9jweOt?##
?@@uGVyoes+qy6oSWmuf+fF71OdE7jDCZg3ebq0eSVxw9zIwdZsLGQCUQn4s1SSeGyYGblP?##
?@@MdxgB8qiblvXKsXOlVvYMmZ7LMWuXQ9SV0jkZGxMDtozMYwJebVjnU18uvsnVGqqOfk7?##
?@@tlRL8A/qevcaujl6366xyNennD+YiUtPdxfmSBFpocgKKh9OLUixD8kVHq8PgyDd11r2?##
?@@F/xwDa5tk/jqbiqQhtxUNl864BjMdWG+y9PwDAn7GBlTNjUs4bJF3xFtU44uaWZjBF6K?##
?@@bNfHZIm/fggj6ML4kIrtUMx+2SuZNSHMDDUi+SaRSwOOq8Z/TzzK5OJuXYEMBCYx2Jk4?##
?@@/baXcoHTJxmFw4itw1EvCf5TPOvNbdlpHm+0O9AcR+ugP1iqYHFCd1g57+ZA0NqM1j2L?##
?@@+pxeaZj2ovaM/IJHCdTY26PtAkVz8kociO/V2NJGx78SKJGUwchtNa8Q/EKMEl9+c1jc?##
?@@S7tRAPNz6RnjBM3almQeo7UsSPpZY21g1hRNRffjmqeqxW4XAfT/SrMZ2nNQ+FKDC6e8?##
?@@bNfHZHoVSiPo7zsPXQ3UQ+J/CuyxZbvs4rlSoS166gOkONs0PBxP5mekrOJWU/B4Kbte?##
?@@idHwZwNMe+UIboageer+Us1+AV6l4sKOik9EB6OoPViLpMH5lgnFW2GSdHTIhD73fvq7?##
?@@kh6cg65ZwETVzEsBUtJ1CNaUsEPby/7vH82tOXt9MGNL9uDZidtK6lRsHHbMkE0lO9x9?##
?@@K6ju9Fstj7moXLWHMa+6Qg46XiBZFtYdPdfDG0Hlc/WSrlnEncahzNerI+IH+8RpLC4W?##
?@@JGxoioe9y0d4zpNRpF31ZN3wg4HNWP8CFUytboNtC+VZiezbliwPwQFSSdI8oanGMGkc?##
?@@MdxgBwx2OMfZIaE723rgbzZ6Z5LhAP1b5rPszU+17keRvoATUEvwe9pe+ihu+252pKLN?##
?@@mmM1RYfRUDQ1gVZHmIaSH4TyUbi2z5G+z4diZhoUz9ton80sKDuyPbsQV8jHndV4Bb7N?##
?@@VyM2JdDrUlnGl+nSGeUQkutiZjk3eB1XboDny4MQPE3IcB2aQIT+XbTEFE94tkrpABTx?##
?@@JGxoivcMuEPq4vfDZlRBY19UwXFk5ridHe2jAGcVIbK232FhULiynXbWBZEw7DMqknk4?##
?@@qeRTc9TJhGJOY17ZYhuIOivYImLNOvn6MwUJpZZzS5e83v/r+8bhKnIYumlKPMPStEY/?##
?@@SrM+qHxm+WqNEjRebBeXi4TcE+mj3/bnsKsaZsTrmSHscHZYLlOoBjrODN5eK62akEt3?##
?@@94IkYFgEZxHO6ojEPAbZaDK4w72ikHvH3KTPAzWv/TTT5bVdVksvajJjysD9GKHyJG0S?##
?@@uGVyoVDXyvUupHJVzjn5UMakBh+ujStLZ2UDrugRiIhr8EuOULf9oOjHjwsUgboeyk3O?##
?@@XVaoN6SFsV1NliYK1S20v8m0yVFlOLNX/Xds1OfAUiAVQHECUa/btZy85wynZ/au1vIE?##
?@@0kRimoW+PsPSN/0EQcqllhpXYfqjFcUt8ba9lH1tZC014LNQ+Tfq6ay+pP3756Rk1kyZ?##
?@@i+IWGLSTD6miJ5XK/ArXSOrQl4Gl1v6AjQQBqI3hEhU7D9gr4NrLDRFwasfb9yfBOleG?##
?@@uGVyoQ7ag1GW0eZ/rd9odqEK3wfIVwwrvjB2fM6FNss0H/TOnKb+hto63pByPwsaAWz8?##
?@@eUe/4fTUnlRrjwIgP/vqIsveDmQPn3Bg5n+mvlymTQOTOn0z9mJ7z8zXsdQ1xURi/C1i?##
?@@rg+zLboowDaxKgcLhYuZosL5nG+wcxKUE1K0bPDXeME292JP05uUh/qwsnm4juY15LyN?##
?@@5/nz2uc7IZreiS8MLLevradwK0nTXVGwOIYjphrKwHquJaJJSf4zMtygeESc+yTnWWua?##
?@@sCDZ3tFiB4j72rNX0pxQJSpB7PtFhI9lmAWXOe9wsEuJHDB5eOPbBe0BnA6PU0vIGlmM?##
?@@SaoqUJsc/tPduEOwaoBzcCpOYLelWszvXOkHkU8rehANHdyEXM80yiHt6lIIE2d7HqI3?##
?@@SrM+qK+UAmvLWqkbnANVM78g1thbDtWjMV6GfSEs2Ga6RkquHkV+FIWNxd7mAND4Nijb?##
?@@n46U/8E5a0dNK88O9uumwb3h4bQCtq3MLKe++9DxL7Zhay4/Ld+vy5cin1MPfr32H6Rm?##
?@@WCtJfcbD8WtuO6Wih97Kz36TSAVzkaOj9pL82eqTN57Cwoej5D8rfbCDmH1TKfZ2NFqh?##
?@@CYRlOFXtbeihQ0CQ+XSojeHn307pQVZbds8rI0QJzr+SG9YwdrmmFK5xy+gessXiX3gG?##
?@@bujtFaytRLe4QDvzMNkACSEvAc2HQ9RFGGwQKEoFU1yAwF+6zaaoYG9kSHQ3jrvYouWM?##
?@@L8s6VjfxBwHe46QJq9h6vhxTxb5Z/vs1fu5dGCksJ9zL9X8wBcvJn+AHJMmgDHYiCi0K?##
?@@TMRkWQVRpnS7y0a9Zo5I3GTfURyT0u/DSVSpZD++5IY+Rm4IsWlif0y5hqUsSJTjIokS?##
?@@4cWAyBJaDuU08TpZt5LLIEVQjTlphvCCTwBNIzVE8l4JKMjwUUEzjVMdMst8Vsm1faD9?##
?@@ygDJ19rwpdClviMBqxKIviLazokmcvh/KkTLGEFy2VZmKssDLYRUUG/hXJQwUxf9aRoQ?##
?@@OzIferXnEGovVLEkL/rEHO28BwWkyYwsDAELrXa0v3/SJToYVI3ejNAP6ajHRuhjhbzX?##
?@@IEocKH71l4NrM7kmgS8+4vxjm7aVSj+GxcjIdzQerFYzXaxpWqMC+f7PHiDJnHa6gRlf?##
?@@Ue/DEhR9qV/CffMctAfdX4ho6nqWxpd6YoD5TB7odVE0WeWoouvWnmtmCWwZxhmoVuOO?##
?@@NgfAwU6+vbxF3hQRmAV6tT8lykGwfbMyvq4DwnyRRC467NzLx53dhlP2pvOxhVe8qvIE?##
?@@UwDpw7AwN5t72ZZvYziXEiW/I7bhPM1iXhqg+zW71hTgVRk6ux87j8x+EAz0OtCfIHRf?##
?@@UOawuostokbzHf2BO/ey1XoB/WYE+Fia9QRLsTi/4Y3Sx1ZV9J/JwscFCQNm4T2TyXqG?##
?@@LboUpcU4uWLVCVkqiklbBgvO0dgeVeUSJdFnHVU3fVBftBtwQEspNWhHHOwiXyTfNIPp?##
?@@PkxYgzilhBrA6uZ4Dsr4SbBC3Jy1LGplU+lPMmZ32hFcM5kpfQv2YqfVd+0xDFGMLOZc?##
?@@J4ahkwK/SuKm9ognWnYrWIdqR9Rd1oKZi0t1M2aUTgxjfgC5iEMKNYBaoenKAdVtp0+n?##
?@@HCfPx+KYgPFwZSZ0wlvfNTTcxj6ziwJDIKjfdlDU+nv7JOUXaq/MZdomXc+soohifOgo?##
?@@CYRlOIKrjIElnJYLIENpDL8d7ifMGpiPN93jqQHUuOS0ydaXCe2h2cW0zw7ExlKM7aG3?##
?@@YoEI8SbZXeTJqzi4wav0Q//otpm6kXDLbKcMtYdhyM2PkDDzALEQP3qFERRYpaB50jZ8?##
?@@jwRjeXmT0ELczvKVaYmt873BnoAOpUzZwrwKifyUjDBtViYXLNw9FiLJ2AXkeXYJAeIW?##
?@@eD6sidp1QrOuBJpFjHM0Fp+8qw5qjZrL9oPQGg/C3rGLco01JT0d+HoJ9HA1S99pk2wR?##
?@@YXn1mEHprNrLuNcaoNgkoJY+FsaueuLAVFGggz5wpH2Hm4NznOjXXc7cvlEvEZsDvmKI?##
?@@rg+zLe1RKrI0/4Qfii4+KRJ4k6rrz/evXw9M+EZsrwN5jM1EIygejC60NC5nM/Ecj3R5?##
?@@szoS59iNH8fqHrWgpCf2SHpL4MHwWCazMkzI3AcAwUDmQBqQRNHDNvsXS3LOmHy1j0h0?##
?@@sCDZ3mCcU45a25ED1QN+eDeEJN54jeRQ/j2gTKhSVclUHpwn2uRrh0Qtp0w3sxXCJdls?##
?@@PUNFKzVD0CP8JFl3ZjA11tCcXG00439r8UNV6VzpK0vlgM45TzGjikN1gL/aFAS4K5+i?##
?@@4s6TIH9E3fF+W1KgbNAOcyPmQNaGaik3g2G8ynNnDnbPI2N7yWiwGGAj+nnC3aKnGccH?##
?@@E9ojrIYsZfjQ2o3M9vePFa4ZM6/l6DaX515focx4iX2FPiRz0VZyxGUXKXeQcZC2K1Ta?##
?@@ADe5HWx0O7h92VEDRPP5WbRREk4D4emAXOlk89qM3U6OQ6qEYWA6mDgUzkhmotLsObKd?##
?@@yfe2f27EqE5+P5sPqPXPYf/GkzTK1/ZezAi8RHoVjUtetyVkf6IRordvZTU/GcDp/wjD?##
?@@sjH/jnk9OjIfdHga39sqlYLYUgrrhN+IUAHDg0cmJtUIu9ZivgcBhMfHPobE559HEfB7?##
?@@g51+VT6+ytTK39GU6cHNAnLT1BK00faLXneiS+ODeV8tMd2YHLKtTd5UsChLj+zFvdN1?##
?@@LLEBTekKPhBtoYZKvCSAQRY1LeSrbd9Zj1qRy0lZitotY87dhm6aeDSrophvsgTStP2p?##
?@@Ue/DEpf+BmknvzCcq3yt0jmzJ0cBBeSnFsSjzmOtQQtfle3L7QggeQUreBXavVZklR33?##
?@@Jn2OO72ixtcOXwDZWk95tJuqrTdehkhmb9XhWWkfBRpI3KYxdM8T6iEQK1Q+ZcrsxbjY?##
?@@l0n8PEaLi4d+orVXrsAWXgAg/yh7pH0yq9ayixnlljO3PDV6lY4RtK1wgytq8s5Vzjz0?##
?@@GAWDZbvfx2tyGrQCVLD2/Qnxsig47CPiWXnKDOhiRJxOMix4SbYH51+/UjwPw2oH/bsP?##
?@@dSVygD0ukVxo5CA63h0cMNQ0C2BWmmOBSLfVmuaL8cUUspxc453xaQhc7ecZyAA+QsCu?##
?@@ziIWOQWK5niiw1KS8RtxNquR7HAB7UAuZmsiaGvm1Kcvlz/5iFm2RCwj0QnMaDegMYmf?##
?@@ywjcMH/O5sB4W1WiSgLGjr00ErhRZlWz285SJhi1dnXbPH9LeG9FcpBDjLA5cCXiIwau?##
?@@0DM86XC1UBIcUThpp5VU51Fs9erTmbmbkg70ftakZaTmk5w2JBj8SvShzOtqzoa1zbWx?##
?@@lTjVjGPn6bHTt4FpPBKZHznLpUI/Tj95uMu5sVLqY284/RlPWiNhguMEYl9A7UCM2MH6?##
?@@9noRBw3Xdh2ZKWSWmPdeKJZK8EhWPPHftGEqawAmNCSqn5ScaTEayuAeTBgqyocnn1Re?##
?@@J4ahk/Yg7K8Cyp4T4J5PtrVvvUlQjDcqfCCTSU9IkVHHLouWrkp80NKhkfZu9Ag3NIIM?##
?@@eD6siVpaTq0wE+HMZj8B8o5sGyEWOJ7A9t3QU0TKKRrIdPaDdKVNp4EAWdLiTTgfSYbW?##
?@@+ZRLEch6+n6Gly2sgAv40lxkGEv+mZXtsRYVVkm3a8D/dEBevufbFgbzjgpgqt+Z9ztU?##
?@@di2G2PfYedpsXoTXIunxzAD8D7g1pmEeg7jr0YqfJPLR6/Iv6IHx5JV3vuOR1Rukki7j?##
?@@12/BVCyXSh7JJ/njqMnlVVDqc6EZ/XZjOL4ymtvMvGhOykL0Hy2F8eEdpTIQDzidOwWu?##
?@@/K2EGpkpzZFLl6qGdOKYM4XYug1atfx4KkULG29kFwWedEkhrfK6D3EMyZhxwzWQxDdk?##
?@@rQag1PhqsElwKfiIK/Ugp/0w6rGimtdfdI4/SY+k3OZyARPm/ubyt9t5BuaGJwpYD2Ud?##
?@@PkxYg3P8eO8Z2N6LNzUT55AF7r4y48y1p2rg7EEoSWzoWQvNSElu9AsgDYntY/4FSyLM?##
?@@J4ahk25c/Z8XjllSAz+LhH/BvPb7q5UoS2YvpeBg4MaFzMlggGuiAJMMSKFcMU7q1lIu?##
?@@LLEBTf0G+/VfKjzjwfZzCMqILYNMu6mzUwtrtGZ1nRPAEN2FDydKF0aimWZo2hulqa+I?##
?@@DaaxmeeuUuOka8+DF3j+yoUVOkU+9QdUInMIOlC1KazIugGqAtNnQqVgGfJw2LcJOEO8?##
?@@oqjOCJZZGRKsosz6wMramSdeS/fqZZ2ST6zzjVxLNeIQ5Q5Qbw3mFiuPOJQG77Qrd4TC?##
?@@Gx+8b1MWYZtmoqHDfOmAAtSlfZFN91393YSyU8msXa+iCuB8/4tLpqJtAsSiCtGUcRoK?##
?@@0DM86aETh2kbfjGFowauxB+rZXLYHt4YF0JcrLvhuI+YRBCXbQ6PM7EDJluDJrtHH5Bg?##
?@@MdxgB9cex0yhy1TYYwGsu5xcxn7oxcIQ3MZDIuJWCiWt3tOyDLSEy10B41sqr75+EsmW?##
?@@PkxYg7QWJTCbZAVnesiobLIh3GthddEqg1uV0ehAl37Co4rLuxpxvixFErIUak8wqhcI?##
?@@S7tRAF3WYtEeCVPIYYFcGagRaRi2emZ3nzxrsEblCPCNn3tGYkoSBU6OJwIf12bB0FR9?##
?@@/K2EGm0q/czqtX6DGE4ovNMC0/TUahYe1BlXX1teEPDZtHTVxtQTE8D2VwRfhWJGbT0e?##
?@@IVIvgXAEKD6EelVrKJJyXJqX8YTcJFJbBcn8z5IGgIWbdHV1nDUojTg7Ar4gnVHZY89L?##
?@@psoaanOLXEeFnFHrKnZPZooVM+MnmiV8UqO++FkNPQhGHIKFxECVQJYGDUrnEHU13hnM?##
?@@Y4obSbbMlXrz6k0IiPQ0xtoYzV5mpchPQLiQH5keDDE0MEGeijNZgEOeY9TDZ9cXshVf?##
?@@JGxoipQjqUsqjT+uUGwuF726wYZZZ7KwlO3c+io27dA29GAUhUiKICEQ0LxzEk967Ymk?##
?@@CYRlODtEd2XCL/UpIMcqr0XKFZ1OjU1bOai4Nz81fKzD5RIQILngPApcD7NPaymXLlU7?##
?@@VhojzDCYUNmRtWlNKQ46gLHHxEIC3XeGH0s5j+WC/3/YPZ8KXAUgWLZytf9Bnf87IYk5?##
?@@00118zT0IGiyQsKat/gfkWp22yt4SPiyfbKN00efNVtpzaa+vxGhLyAcEoK5XTiEB70V?##
?@@1FaIS38xkn2fLXh+OzrIQWIb4aVRRpIp+ygFpqY4Y3XJ1cleGksTm9CJl85vEz9YmIFv?##
?@@Nf6taBrLSOSmImPo3EG0HwS4PrJgfyk/amoTDHsjqlPE7mDM/MVv14YMO4SP7P9Mkw1z?##
?@@8lfFphs7MfUL+0lzioHth4w/yCK7D6neCpw2Gm6d6Nzf8quntyAWftl4vADOSRX/AGL5?##
?@@kyev24uooAYVEFdKuevwQanRAtifYa27mWrtWuAxNYtCxnPS41ZFVSz2qlWNvUBR2Iio?##
?@@jOoqcK3giAejHlOhDRyfgqb732atNKdxWtzV6BIM08znvSFciuTlSHyuvz47CfECJ+Hs?##
?@@qeRTc7fgjke6JmHUisNNPbbSi0IIc8F1rLGzzPgQRJji0SeKdg5ZTfOaosWADlPCZimg?##
?@@Co14kDTJFjnVH7v+Tuxz9AFnvGQbHAVpwxCPT/v1SGQPXiDDyWT2JhnHgyNgdFtGjUZP?##
?@@u3+rqu4ayxJgludWIJOz1479WUzot4jNnyGc7u/IdpvJMl8H3IhyBRorImhUsPKUMhrH?##
?@@WCtJfVj97Tr1FJdRcF8Z1O3pMjmh+xr0P641ZFEJq2bsAq9HqGaiajnUMlNRSLZiayPT?##
?@@YXn1mC2G1IGGcH6L05T22ouaWEbPhlhe8/Q+ezaau9pWAr9L8PIqrwk0RknDJLzRgIfp?##
?@@6hMs42XjJl+Jzd3zNuIxiBzruP2K7fDM3U2SPpYmj9dYSj4uCGfO9CeLMe/PBh8bIC/j?##
?@@7z6Mnb7wg6sWrfdkhq2gYysqZ8NMPiSiYwN34DrZBa4JOk9DtCeOXxqtI7nQU7exx8nQ?##
?@@XE6V31hnGQs0qaPmlyJ4hDkOUjDGyB/AsAzFW/1OTsVnEidFSKZprxa3XVci50F7j4Be?##
?@@QWaSjZfrwNvRxbCWA1Qbrn8CiGtzQ04VHnv8LdPLovgxeHUBCskaClCl4d4FyYsPSpVg?##
?@@ziIWOcxy78amnZdJFGn6mGbjDbCkhvZhuhKfAhZCysCfln8ro4BhOPEAP31e8wNVhfHM?##
?@@I2RVMZKIHV3jVBB9zlJsHXkousEmsrjDov8NLZW5a5n0raNqQFZgkd9DAW9SjajYVMpB?##
?@@6AEGMrcH+a1PXh/+vzX3USlBSZvGTfDkb16opmGbqE/eEi8W6LXbakVyXZH4W4nBaSAx?##
?@@HTDiH9CKoShJnywY4O689crCVqnbyOaPra1abNuSlrqOcGNUmcRJms5lF6O2JSgJLS8n?##
?@@3qtHv5RdguWxCaNKfWA3J2XBVVptO63xMc+8gyEf04PptrDr6tnDNxsNqmSesclYfYPi?##
?@@P1Rs3Hp5eG15QCTNHPO7EPT+wK//LoN8B+wnQj5WGJKK/McLQgYhWadYs8Qg9pRqqE6y?##
?@@BFkFfq/4Rdz/IJErwpSMcwicia2HywrhGFeYSPpsLXjfdP2dSATkvrNkT4Trz1G3usYq?##
?@@7Sxl7KPSDaGEMZiHefwNgECRWbGyvymTtrYEEmoecMf4xKFyrlZpjAN49bJbuKdJzW3+?##
?@@NgfAwbXCcBRfqCvYMQa0RhzLFCogqTBdWNJ2nbVxGyzdUtOguzbL7vNfZtuPcBb5HuMI?##
?@@R5kEnzRB/+WHCzSQ2E4JUEAr9Ke8q1nbeOhnvv3GiPAWs1cgeuv7vaA4FOq1eNcq11wr?##
?@@QF1/NCpvzrG5TT3BPOTcGQjoLBWAFKDetbvgLfd1VRzmk4XhVey9GQJXYNv9vAMqfevN?##
?@@LboUpSZSz6btLuFIIRmu9JVJp0qrQ+EibFzi9dJrJtDkRmGhSoO3bGL+OPctMHEYW+xe?##
?@@quxmy8TYV3fz/zDWj+6Cm/KWT3MQSxwPykzsNQ6Rx8/36WstZO7LxCZey+iCm1pR8bfb?##
?@@NxDTGSDegcBOSs23Q2iME1aCBttxMFtbscnKhSthQC7uV2sWaq5kgNtoed63SIC74hVP?##
?@@6AEGMvhW9vTE7cAToEOV7GRcveNKlu7sNtAwRkl3DEHdPUtgFQUAtbNdQySTt/ZZi3lf?##
?@@HTDiH8vIAzo5HC3c+QDvdhmNOTMnsQqRHIhko42V3J90AnEh7iSYY/93swamTL+xlbMS?##
?@@+pxeaUDE8+nQN/88rVSs6lm5SX3KEpYB04Be3oTrHJG+rTZljNmhvLfHvYooyodA4Cro?##
?@@82DY/nQ9CjiXEYgvpxW+eS/37NtoXWoxiPWNctHHf8CZRtznpiouwdRkssVFJovkVytG?##
?@@nHRb9gZfAIz3B3dwjimIw9QsD+SJ1/4lGtOc3RP7ewUnM+sjFK7O5dddbzitZnShsDlV?##
?@@Tc13scEexGxo6NnstWuuut9rL+cJ7fN83Ul1jZ1rXejfqhYGSEnuZT2tpgwqvfnO3Vh8?##
?@@EtEQU+KI5yqzcvaX/65EzAbcBib6dRSv4a7YheDb2BL6qric+O9F3T+ZVE6586yQ/4uz?##
?@@T96dYsTwiDIdWsxRu+EA3QDdbctBwY+yqP8qJc4h7IvP9zBrQcT37nqp5kGLlfzsqRxt?##
?@@vIe+AqZb9tG2/CcZH0oS91vLh5dRSM0j1m6yOsLVzeomqWx5V6DszvpL3TRL3wA1HLW8?##
?@@beDavZuWRz/Xnm+vJcWDGyZnMpeodRSUW/CyUHqtx1svuMg7G2La3JY/Rnbvvoq9Wss6?##
?@@wrswFA+R03wYxS2WWVKkq3mg+vX3nYU5XsCt0x6Xt4iB+8SGTaqCtutPNUHljV1icLA+?##
?@@p9Mtwk26VO+otUQkSi8Qghb8Dvv4bX7LYddn4EFp1gJlU6XxVS0PKid5nIz5xsIlxdM1?##
?@@yO6jJkQPCbcFuKksmKKg+rGydN2Nb1h3OwKXnwQ93PTna5TQQ0rGdej9oTmJDicczcvC?##
?@@uW2F+dIY8BffsBuUvyFBjZ1mI+57rMSFWPqzNvAdGKeThqzHzUtxdnqCQuttmcpi/uM1?##
?@@mmM1RRuCdyhiSJxBlQn+yIiq9n7TAl4Hdf52bwG0Kggl+ZLFOwgDGWxDtYXZcIeAY6eC?##
?@@S7tRAJQ57tonlxWbudIXTxFwh44V0eXPm1bxUOJCAKO1buIDxr7hNI6X5yQORRusf5jm?##
?@@+Is3uHf9D6ZPTQXbw+wR8rdKhOkmEyHzDu2anyroGUmc5w8CBs8U/xl5nrD5xhyQNhEu?##
?@@9XH+r5e2e7Z/LNMQ/s4vWoPiRip20ePqn8kLQIVrjHv3uwaCQEOaY00SWKvKrcOZB+I4?##
?@@Hjn1eKMf9cgdzXDIvzModrqzqoGAAK3VY6E5RA3PtXuCjKP+UIVVa6B2nkjyN+w2O+tt?##
?@@C5WL6QkPKRu/0uRW1OrkSQ+aSeoUSoaIDGWn4cnmKkuxdTIkyV69SByPfUAnEIEF9HvU?##
?@@RH/LlvfKEeNqub9FwUFgDNUVSu+QsHJ07OKbr10xd393NrdOvMskhyZnZYWqLUeFR/BZ?##
?@@oZ+6sKC36Z237KdmpYSdKO18WrpJSerSKHHeXebqUG6xkzu7hhz0ZSstit4y29GSybDy?##
?@@7jV5RBWcesNQthOFvvzT4ZP6G9GV/G9UdPAG6XDsF3hrl+Nnj0mLfmzVsaaTVOuwRIkO?##
?@@rxfGhQediSSxgkZeKORf9u2rvxsGxjErY0F6tjh6FAlmXpB+SY+qy/4O9TSx7NXHeeh9?##
?@@xMxXxesyIdMiE3XEEfo3u2kFImLBPtrkQ+a8rE/7V6r1FWuwDVpHrNYleW4Ab+kBeEno?##
?@@kRWJKu7zcmeWxlslX/IbnsSezjqmnVQcNo1TKifngq+wDfgrbtEnOHh9xPgOEggeYIo+?##
?@@lkDo5HqY9He9pg97dUzJIJokHorxxx/YQfhuqqtRYa0y3FyhEd8dyY6SpRqa3m0oKVy1?##
?@@g51+VYrGmc1oPu7kc/E/MsDSKMr8OaoIfvx+TklDESzRgX7RmjWVgRvL/Bvix79xnxqp?##
?@@uGVyoZDg0cSuCCAm9TAyeFbagBCK7UQqqseeOkjJ/wve386XDOTUbt9OHa6xxI4KY2g9?##
?@@IVIvgSFGWkwlRUFkOuJ8QGAnCuT7DgxnMS618K8EVTTJK6Cp5i+mcpTnGJax7SYsfnUn?##
?@@ziIWOfAPAsy2KpA84AyeAKGhcmmuAYjohyqk3Bna6q8FXZnmWIe1TnGuExcaZnmjKSIO?##
?@@i+IWGGJGnKfArOWs/QXq2t+cWLcOmYWAP5bzL1pcV4PhDmMs0RDae1FKYdgk61olS9Aa?##
?@@eD6siXTLBer2f1Gx2fnUwFlRAblR+FFEMRpNDqJPoNhQvmj6VNLJUwEzi1i1qf0lW+ez?##
?@@oZ+6sOFVuR5Sb8VicXwph1twhTIf4dVpC5rm0PDIS79DmbeqlU05y7kM9g7cRCjmqOdT?##
?@@asagtIwaR9jIMwQ8K1Mf4F0TK6LzJjLTLTl/OpSjU9R2e9Yat7tQ5qmRODDdPYxvPJMc?##
?@@w8NEbUnBvszwiAa6hzsFQNxIq7km7AmZW/9VZWvk9X7UuW0O482z9r5Spi0Yd3l784NM?##
?@@7CRSlIGcvhe7Ggqd4MJAbMLuwbXbhlUoakSQNcs7HgbHeaWuuBvGDdryjwWCQOCOEzB+?##
?@@4cWAyIUIIhO4gvy0q3U+L1q8cmse8sY1MrY8w8Ycd73WPi8qK1X+HqkYVOOyC/kl99kg?##
?@@xt19dhWF0MeOWKgZ0GUrZAXG/iUcabm1cw3/J29sJblhInRVd3k4fnqYO07elhv2jDsg?##
?@@cxNMz71O3oKiAcQbfF2C49YrK/46RA3K932MR6i94dEkxwCJuY5PKDFs8FvYf55uV18r?##
?@@tEIlP49jedTBl/Ain9iUqTsW5ah924JAuXL4bX1dnN+fX0/ObRMs5EMDX3XXPHpg4HKz?##
?@@qeRTcw8aO8WoztNNLFeUotnAp6A25TVhPwEzhe2Xo96KHfbO1chBzBeyjjpPhYYhEmbd?##
?@@+pxeabkfkYEs8LpUStfyvBZs1HvaxhqdNx17nGBzQxhUg1DZUth69olEd8b8cJLxqSG7?##
?@@C5WL6RGtF+2E/CxIPPi/tdt/H45fVpr9Zy/7TvCgCUtHtaydhjiFW63oT7Y8uZq1x1aN?##
?@@MNNNrnb+3RNg1WapSVjnHkYBZfKGqaKegrmOwvzowW9F+oJivzLLUKhptqQpKiWlVk9W?##
?@@qeRTc5DUP/NUQFAXumnWLSPBoZVx7nUCzYv9ygdnTP008PUOoK4mHAufq2n3Qe679r7T?##
?@@quxmy8EAvD8CY4R8PmhMTlbwRvq8KEzQRgfKNblNv9PbJmmXXZITtnVblmVAQx2pgQHZ?##
?@@g51+VUrukHfQUfzLIYrBTU7Lgf/vqOWtgg3lrJXSbsJav3/y+qfnd5YFmkwm+HiqiOF7?##
?@@RH/LlkdEOGctlcfdxykaDNMeJw8gWvJfNM8sizkK5cN3X20AJOVNF1BZgYDGOaKf21Vo?##
?@@HTDiH1hRwMpLhBI2JrGdafSo4QtYTDEGGWQx1FoKY0K+ypRx6HUFhjlz8/QWmKQsPxzN?##
?@@ygDJ13Yma3lMGhb6OTKOoTql3AuzXzAfsG433NgQEudoFDT/MVIUbc5uVVFNZjrlPqBY?##
?@@VyM2Ja1+Lk5uVoTDEcKJeMKBD9WU/PUur2HZuVjClArCEc1YQ91f3DzfHusHfpG7oXfS?##
?@@xMxXxXteOcdGDnEHwpvFKHfW5EtJB/Kdd4XoZdGpB3yBltIu/qZ7jCuMleDUd+QVHzTf?##
?@@yfe2fxkr5XdLP8GlIrRHrqE858x5tW/XlwITHr+Zm1FEiXj5KZHqrOC0VvdwRDt2MPzx?##
?@@Qm6l5V9HZOwSMPH88vwOQ1vsZjWBrpJAUqjVbiQD0Mdz5NUEGeFNrxQ6wfCsZgi2Q8jw?##
?@@x+aQzkr2iLBLKRyBX/mHFlKzy6jrsCwH3/SWDB7u1eR2OBvyI6SUVHkXHR0r2wRtrrHk?##
?@@RH/Lls7MGpjT8rhFqxnoRxP7HK6Wzh7h+PDvtkQtpbyiHok79qW4J/892shWSBHzW+Rv?##
?@@LboUpWP/GiD6rCvN5rKIICSw1UJej131Zc0pCWk0d8/8TleJcbSBfTR8ITpfTYJmqqNh?##
?@@TtWKCcPN82TCN3nzn6D2SOu3TYDLPLs6F+eo5MMgjy9dTmRGTYnfokSzRJcDzGYJNBEI?##
?@@x+aQzl8RjrKQTSPH9rXn73T6IZeCqzT0z3EXgzQ1T9FVAKllDRL4mmQvmuoJciwNik9U?##
?@@QF1/NFMNgFGzuzpm/ZBIVhqpCsQXFrbghjyoQ3mUvgE4nk/PlZSK96SO1WwWvJz3OsS0?##
?@@gYxYpFa1Ud4WfW24SNK5lD3+k16W8VWuWeY/viQVhz3Q26PR/sJQAeUl4DXLy2xTmKb1?##
?@@FvRdteh7zbYvyrsfhfVWdb0xEAGeXd7DLS+yBN4tDCFEyFL+FeC1ArnlAzMy7/zvtbwD?##
?@@o7DhYZwLcq+WptG/Lgzam0QVHMVNCvowU26cpuyHjgPrWHGOADQUWsIot8NIZaU5Udkj?##
?@@wKoKZOsXluLG5CL669pndxh3Mzpyk1dCQju0xAcb03EqO3UW0Ly8z1DhVQJwh5StuO4C?##
?@@9XH+r09iyLzSiNYRlCXo7n/XBYR+rJlCIdPcO200huOxVbtUUiBzMAnj+fRnyC7GuiUC?##
?@@GhapFu022QF5BFNN8XJ7k7X4O62vW3c0QIdBanAEeVhfr1CqPjh5HmHz7jLpI2y+WZq7?##
?@@l0n8PDvbp6fIfk8CZKFXOtXtUVjvBZZh3jJzgx2DX2VS1SH+O9YPDFGO8Rm1k5RPZri5?##
?@@8Eaf9ayyex42xjqkvBgzOUUjZusNh291BNPPQbaojjIt5gv1moAolqIYLKOLMyG22P0c?##
?@@ab2NW0JmviEXo0AxDPqnXaUcxBGDUurKJYJ7OXBkMEosCGiA0LooyveFxfahsWvw5054?##
?@@ygDJ13kWfu2kwXtw+oiih9ywV9BRKSkOGA3Hn+TC8UHkSeNs6+Puj7iXXyThSREWk5l2?##
?@@Z6xnq2ZVCg/KHX28oL6AoqmR4kRT47Q2jJ5EN5VCgto6OD5EOv4arpWi47I/JTBtmkXJ?##
?@@HCfPx6supKRlT0QfeY/VmDsehIDpZzj3S0e1CCOxEVE2Kqe9tEJxpItIAr2R5MdRkRkF?##
?@@5ejNKU8h7XMTo9UtfSGN8iCKFV+EgEkR9EFoDRK4oLSGTmK1/lY6DKa5zCIamM+F7wB7?##
?@@5vDggoFcYtWQKSkgV3UiLL9qpyXwsBjIruyEH9cm37upR6r/h5Wrl7jDm/DCIhHagamw?##
?@@94IkYNZ5oJPvVHmY2+4SXjULPwL91h34UM6bTo9HipUeu9vib9aPazifGqwPnG0dfgyE?##
?@@5N+60bGMwl3G9u+2Sn3Jb2/m/yG9L8l328rAdy05W59rHtL7oZIxgPVOxfY66ZVqno1i?##
?@@MdxgB1E0ZScbMpk2PxpcvfIQuG/unhU2Ik/kwi1YYyQUKytQT8hsD9zR+g8V0xanBoXI?##
?@@vpjks8AFB3W0t5tZ9Ml1cMtyoa8R5vXjECBVnT/88IJhjSbyzX4iC/Mjtf7GQ+5GWh5W?##
?@@t1xeSNX3CQdMiEvVNJQR5fkx/uMWSGdSE+wsuY6lsiV00WJqQK0fXXtnAuXZVeSGzqlS?##
?@@DJ6eQRPXaVHsO5382OFjr7rsw+tc13Pkq9t0K50UGFNIxt7XQCmauEZEjlhjVexLMixr?##
?@@mVoi7cH0XuKliOSfdeo0I/OfqLSTaJs/VuQ07bhOFy7blk+feDj2+Rnsk09yCB8UxqsW?##
?@@vpjksxZoh364Iby1DmRGNlbLemOE0L0m2yWbLsY0fP4t10scU8V1DfBSQX3AQS1q7Dfu?##
?@@n46U/1wJWT3uiL4FcFAgKRmvJylTfe7IlgxNfji2bMdbxwv7dtOiWgL4lort/3RhGnNO?##
?@@sCDZ3qDoYyfz24N6Fwd/Son4kufD1SBXeFXyguVbIpYrzZfwnQaO26cNnrYibnPcN0tC?##
?@@IVIvgdbamcXQAXm+dYEU6kXyohb42kXBPOxSTFQ2ffSD1TWTB3mbFMDsqIjEZHvs63Zc?##
?@@EtEQUwScVkfbpkesktOV7FZuPcCDtAkAShEY2aEabEWa6oueJQuaJy78U8MTlgoHNiXP?##
?@@K6ju9KtMU1AY5Eke//O9PINMlg0SdgKHTrAkz7W+GW2UMR78t6P26JETyMQceUZAsF8y?##
?@@bNfHZL8r9ODENwi3pCzEl2cSVHtioNtqWKerpaPSNrKCXhXCeroyiSwtQHoYvmv69h3/?##
?@@jfM9ybEy99lBFizgqwWff1bE1MVpe5EFJthSVCvxeXL1JAPYNnbtIFQB1wo27TeyjHUJ?##
?@@asagtNd3wkr1k7sSYSvDf5MlMc58qjf1nork8P+d83/t880rE31mjp2garJ4me1W0PEv?##